Written by BCL::WriteToMDL,1471594
MBcorina  10171218483D 1   1.00000     0.00000 
CORINA 3.49 0026  01.06.2011
 31 33  0  0  0  0  0  0  0  0999 V2000
    1.1380    0.7657   -1.6533 O   0  0  0  1  0  2  0  0  0  0  0  0
    4.4249    1.7321   -1.4770 O   0  0  0  1  0  1  0  0  0  0  0  0
    2.8614    3.5686   -0.1090 N   0  0  0  1  0  3  0  0  0  0  0  0
    1.7035   -0.2761   -2.2940 C   0  0  0  1  0  3  0  0  0  0  0  0
    3.0844   -0.0862   -2.3403 C   0  0  0  1  0  3  0  0  0  0  0  0
    1.1561   -1.4401   -2.8798 C   0  0  0  1  0  3  0  0  0  0  0  0
    2.0157   -2.3809   -3.4963 C   0  0  0  1  0  3  0  0  0  0  0  0
    2.0692    1.6661   -1.2555 C   0  0  0  1  0  3  0  0  0  0  0  0
    3.3445    1.1943   -1.6577 C   0  0  0  1  0  3  0  0  0  0  0  0
    3.9218   -1.0314   -2.9573 C   0  0  0  1  0  3  0  0  0  0  0  0
    3.4066   -2.1511   -3.5216 C   0  0  0  1  0  3  0  0  0  0  0  0
   -0.2265   -1.6778   -2.8593 C   0  0  0  1  0  3  0  0  0  0  0  0
    1.4663   -3.5355   -4.0761 C   0  0  0  1  0  3  0  0  0  0  0  0
    1.8232    2.8223   -0.5863 C   0  0  0  1  0  3  0  0  0  0  0  0
   -0.7253   -2.8094   -3.4319 C   0  0  0  1  0  3  0  0  0  0  0  0
    0.1190   -3.7351   -4.0384 C   0  0  0  1  0  3  0  0  0  0  0  0
    3.7818    2.9971    0.8772 C   0  0  0  1  0  4  0  0  0  0  0  0
    3.0554    4.9413   -0.5828 C   0  0  0  1  0  4  0  0  0  0  0  0
    4.9885   -0.8640   -2.9815 H   0  0  0  1  0  1  0  0  0  0  0  0
    4.0629   -2.8686   -3.9915 H   0  0  0  1  0  1  0  0  0  0  0  0
   -0.8923   -0.9676   -2.3916 H   0  0  0  1  0  1  0  0  0  0  0  0
    2.1090   -4.2624   -4.5505 H   0  0  0  1  0  1  0  0  0  0  0  0
    0.8060    3.1509   -0.4320 H   0  0  0  1  0  1  0  0  0  0  0  0
   -1.7899   -2.9905   -3.4146 H   0  0  0  1  0  1  0  0  0  0  0  0
   -0.3000   -4.6243   -4.4858 H   0  0  0  1  0  1  0  0  0  0  0  0
    4.2290    2.0889    0.4732 H   0  0  0  1  0  1  0  0  0  0  0  0
    4.5664    3.7192    1.1030 H   0  0  0  1  0  1  0  0  0  0  0  0
    3.2346    2.7581    1.7891 H   0  0  0  1  0  1  0  0  0  0  0  0
    2.2794    5.1887   -1.3072 H   0  0  0  1  0  1  0  0  0  0  0  0
    2.9970    5.6286    0.2612 H   0  0  0  1  0  1  0  0  0  0  0  0
    4.0341    5.0278   -1.0548 H   0  0  0  1  0  1  0  0  0  0  0  0
  1  4  1  0  0  0  0
  1  8  1  0  0  0  0
  2  9  2  0  0  0  0
  3 14  1  0  0  0  0
  3 17  1  0  0  0  0
  3 18  1  0  0  0  0
  4  5  2  0  0  0  0
  4  6  1  0  0  0  0
  5  9  1  0  0  0  0
  5 10  1  0  0  0  0
  6  7  1  0  0  0  0
  6 12  2  0  0  0  0
  7 11  1  0  0  0  0
  7 13  2  0  0  0  0
  8  9  1  0  0  0  0
  8 14  2  0  0  0  0
 10 11  2  0  0  0  0
 10 19  1  0  0  0  0
 11 20  1  0  0  0  0
 12 15  1  0  0  0  0
 12 21  1  0  0  0  0
 13 16  1  0  0  0  0
 13 22  1  0  0  0  0
 14 23  1  0  0  0  0
 15 16  2  0  0  0  0
 15 24  1  0  0  0  0
 16 25  1  0  0  0  0
 17 26  1  0  0  0  0
 17 27  1  0  0  0  0
 17 28  1  0  0  0  0
 18 29  1  0  0  0  0
 18 30  1  0  0  0  0
 18 31  1  0  0  0  0
M  END
> <Activity>
2.057

> <Mapped(file=504701.csv.activities,property=Cached(PUBCHEM_COMPOUND_CID))>
2.057

> <PUBCHEM_ATOM_DEF_STEREO_COUNT>
0

> <PUBCHEM_ATOM_UDEF_STEREO_COUNT>
0

> <PUBCHEM_BONDANNOTATIONS>
10  11  8
12  15  8
13  16  8
15  16  8
4  5  8
4  6  8
5  10  8
6  12  8
6  7  8
7  11  8
7  13  8

> <PUBCHEM_BOND_DEF_STEREO_COUNT>
1

> <PUBCHEM_BOND_UDEF_STEREO_COUNT>
0

> <PUBCHEM_CACTVS_COMPLEXITY>
375

> <PUBCHEM_CACTVS_HBOND_ACCEPTOR>
3

> <PUBCHEM_CACTVS_HBOND_DONOR>
0

> <PUBCHEM_CACTVS_ROTATABLE_BOND>
1

> <PUBCHEM_CACTVS_SUBSKEYS>
AAADccByMAAAAAAAAAAAAAAAAAAAASAAAAAwYAAAAAAAAEjBUAAAHgAAAAAADATBmAQyBsMABACIAqBWQAICCAAkIAAIiAFMCMgMJjaENR6COWCk4BEIqceIyPCOwAADAAAYAACAAAYAADAAAAAAAAAAAA==

> <PUBCHEM_CACTVS_TAUTO_COUNT>
1

> <PUBCHEM_CACTVS_TPSA>
29.5

> <PUBCHEM_COMPONENT_COUNT>
1

> <PUBCHEM_COMPOUND_CANONICALIZED>
1

> <PUBCHEM_COMPOUND_CID>
1471594

> <PUBCHEM_COORDINATE_TYPE>
1
5
255

> <PUBCHEM_EXACT_MASS>
239.094629

> <PUBCHEM_HEAVY_ATOM_COUNT>
18

> <PUBCHEM_ISOTOPIC_ATOM_COUNT>
0

> <PUBCHEM_IUPAC_CAS_NAME>
(2E)-2-(dimethylaminomethylidene)-3-benzo[g]benzofuranone

> <PUBCHEM_IUPAC_INCHI>
InChI=1S/C15H13NO2/c1-16(2)9-13-14(17)12-8-7-10-5-3-4-6-11(10)15(12)18-13/h3-9H,1-2H3/b13-9+

> <PUBCHEM_IUPAC_INCHIKEY>
IPKDJMFWSTXQLF-UKTHLTGXSA-N

> <PUBCHEM_IUPAC_NAME>
(2E)-2-(dimethylaminomethylidene)benzo[g][1]benzofuran-3-one

> <PUBCHEM_IUPAC_OPENEYE_NAME>
(2E)-2-(dimethylaminomethylene)benzo[g]benzofuran-3-one

> <PUBCHEM_IUPAC_SYSTEMATIC_NAME>
(2E)-2-(dimethylaminomethylidene)benzo[g][1]benzofuran-3-one

> <PUBCHEM_IUPAC_TRADITIONAL_NAME>
(2E)-2-(dimethylaminomethylene)benzo[g]benzofuran-3-one

> <PUBCHEM_MOLECULAR_FORMULA>
C15H13NO2

> <PUBCHEM_MOLECULAR_WEIGHT>
239.26922

> <PUBCHEM_MONOISOTOPIC_WEIGHT>
239.094629

> <PUBCHEM_OPENEYE_CAN_SMILES>
CN(C)C=C1C(=O)C2=C(O1)C3=CC=CC=C3C=C2

> <PUBCHEM_OPENEYE_ISO_SMILES>
CN(C)/C=C/1\C(=O)C2=C(O1)C3=CC=CC=C3C=C2

> <PUBCHEM_TOTAL_CHARGE>
0

> <PUBCHEM_XLOGP3_AA>
3.1

$$$$
Written by BCL::WriteToMDL,6886124
MBcorina  10171218483D 1   1.00000     0.00000 
CORINA 3.49 0026  01.06.2011
 51 54  0  0  0  0  0  0  0  0999 V2000
    0.3521    1.7810   -0.5824 O   0  0  0  1  0  2  0  0  0  0  0  0
   -0.0947   -5.2206   -1.0910 O   0  0  0  1  0  1  0  0  0  0  0  0
    2.8397  -13.2426   -0.6554 O   0  0  0  1  0  2  0  0  0  0  0  0
   -0.2413   -1.7642   -2.6469 N   0  0  0  1  0  3  0  0  0  0  0  0
    1.6121   -1.5247   -0.1485 N   0  0  0  1  0  3  0  0  0  0  0  0
    2.7326   -2.1146    0.4537 N   0  0  0  1  0  2  0  0  0  0  0  0
    2.6274   -3.3930    0.3429 N   0  0  0  1  0  2  0  0  0  0  0  0
    0.2145    0.3722   -0.6372 N   0  0  0  1  0  2  0  0  0  0  0  0
    1.8164   -6.1186   -0.4007 N   0  0  0  1  0  3  0  0  0  0  0  0
    1.6593    2.0658   -0.1165 N   0  0  0  1  0  2  0  0  0  0  0  0
    3.5668    0.7741    0.5565 N   0  0  0  1  0  3  0  0  0  0  0  0
    1.3672   -7.4105   -0.7043 N   0  0  0  1  0  2  0  0  0  0  0  0
   -0.4670   -2.4011   -1.3470 C   0  0  0  1  0  4  0  0  0  0  0  0
    0.8454   -2.5338   -0.6181 C   0  0  0  1  0  3  0  0  0  0  0  0
    0.2130   -2.5239   -3.7274 C   0  0  0  1  0  3  0  0  0  0  0  0
    1.4896   -3.6972   -0.3054 C   0  0  0  1  0  3  0  0  0  0  0  0
   -0.4922   -0.3305   -2.8135 C   0  0  0  1  0  4  0  0  0  0  0  0
    1.3377   -0.1555   -0.2402 C   0  0  0  1  0  3  0  0  0  0  0  0
    0.6111   -1.8965   -4.9010 C   0  0  0  1  0  3  0  0  0  0  0  0
    0.2731   -3.9082   -3.6286 C   0  0  0  1  0  3  0  0  0  0  0  0
    1.0168   -5.0571   -0.6250 C   0  0  0  1  0  3  0  0  0  0  0  0
    1.0598   -2.6506   -5.9674 C   0  0  0  1  0  3  0  0  0  0  0  0
    0.7228   -4.6563   -4.6989 C   0  0  0  1  0  3  0  0  0  0  0  0
    2.2648    0.9294    0.0939 C   0  0  0  1  0  3  0  0  0  0  0  0
    1.1130   -4.0289   -5.8678 C   0  0  0  1  0  3  0  0  0  0  0  0
    1.6643   -9.7925   -0.8079 C   0  0  0  1  0  3  0  0  0  0  0  0
    2.1371   -8.4325   -0.4883 C   0  0  0  1  0  3  0  0  0  0  0  0
    2.4902  -10.8939   -0.5767 C   0  0  0  1  0  3  0  0  0  0  0  0
    0.3857   -9.9840   -1.3380 C   0  0  0  1  0  3  0  0  0  0  0  0
    2.0389  -12.1675   -0.8790 C   0  0  0  1  0  3  0  0  0  0  0  0
   -0.0530  -11.2576   -1.6351 C   0  0  0  1  0  3  0  0  0  0  0  0
    0.7690  -12.3470   -1.4107 C   0  0  0  1  0  3  0  0  0  0  0  0
   -1.1502   -1.7904   -0.7569 H   0  0  0  1  0  1  0  0  0  0  0  0
   -0.9007   -3.3897   -1.4972 H   0  0  0  1  0  1  0  0  0  0  0  0
    0.4404    0.2189   -2.6851 H   0  0  0  1  0  1  0  0  0  0  0  0
   -0.8889   -0.1447   -3.8116 H   0  0  0  1  0  1  0  0  0  0  0  0
   -1.2148    0.0010   -2.0678 H   0  0  0  1  0  1  0  0  0  0  0  0
    0.5695   -0.8201   -4.9796 H   0  0  0  1  0  1  0  0  0  0  0  0
   -0.0311   -4.3988   -2.7159 H   0  0  0  1  0  1  0  0  0  0  0  0
    1.3691   -2.1635   -6.8803 H   0  0  0  1  0  1  0  0  0  0  0  0
    0.7701   -5.7326   -4.6227 H   0  0  0  1  0  1  0  0  0  0  0  0
    1.4642   -4.6163   -6.7032 H   0  0  0  1  0  1  0  0  0  0  0  0
    2.7028   -5.9881   -0.0291 H   0  0  0  1  0  1  0  0  0  0  0  0
    4.1083    1.5547    0.7523 H   0  0  0  1  0  1  0  0  0  0  0  0
    3.9336   -0.1148    0.6835 H   0  0  0  1  0  1  0  0  0  0  0  0
    3.1241   -8.2873   -0.0745 H   0  0  0  1  0  1  0  0  0  0  0  0
    3.4781  -10.7530   -0.1637 H   0  0  0  1  0  1  0  0  0  0  0  0
   -0.2588   -9.1356   -1.5146 H   0  0  0  1  0  1  0  0  0  0  0  0
   -1.0414  -11.4045   -2.0448 H   0  0  0  1  0  1  0  0  0  0  0  0
    0.4199  -13.3416   -1.6457 H   0  0  0  1  0  1  0  0  0  0  0  0
    2.7410  -13.6302    0.2250 H   0  0  0  1  0  1  0  0  0  0  0  0
  1  8  1  0  0  0  0
  1 10  1  0  0  0  0
  2 21  2  0  0  0  0
  3 30  1  0  0  0  0
  3 51  1  0  0  0  0
  4 13  1  0  0  0  0
  4 15  1  0  0  0  0
  4 17  1  0  0  0  0
  5  6  1  0  0  0  0
  5 14  1  0  0  0  0
  5 18  1  0  0  0  0
  6  7  2  0  0  0  0
  7 16  1  0  0  0  0
  8 18  2  0  0  0  0
  9 12  1  0  0  0  0
  9 21  1  0  0  0  0
  9 43  1  0  0  0  0
 10 24  2  0  0  0  0
 11 24  1  0  0  0  0
 11 44  1  0  0  0  0
 11 45  1  0  0  0  0
 12 27  2  0  0  0  0
 13 14  1  0  0  0  0
 13 33  1  0  0  0  0
 13 34  1  0  0  0  0
 14 16  2  0  0  0  0
 15 19  2  0  0  0  0
 15 20  1  0  0  0  0
 16 21  1  0  0  0  0
 17 35  1  0  0  0  0
 17 36  1  0  0  0  0
 17 37  1  0  0  0  0
 18 24  1  0  0  0  0
 19 22  1  0  0  0  0
 19 38  1  0  0  0  0
 20 23  2  0  0  0  0
 20 39  1  0  0  0  0
 22 25  2  0  0  0  0
 22 40  1  0  0  0  0
 23 25  1  0  0  0  0
 23 41  1  0  0  0  0
 25 42  1  0  0  0  0
 26 27  1  0  0  0  0
 26 28  2  0  0  0  0
 26 29  1  0  0  0  0
 27 46  1  0  0  0  0
 28 30  1  0  0  0  0
 28 47  1  0  0  0  0
 29 31  2  0  0  0  0
 29 48  1  0  0  0  0
 30 32  2  0  0  0  0
 31 32  1  0  0  0  0
 31 49  1  0  0  0  0
 32 50  1  0  0  0  0
M  END
> <Activity>
1.04

> <Mapped(file=504701.csv.activities,property=Cached(PUBCHEM_COMPOUND_CID))>
1.04

> <PUBCHEM_ATOM_DEF_STEREO_COUNT>
0

> <PUBCHEM_ATOM_UDEF_STEREO_COUNT>
0

> <PUBCHEM_BONDANNOTATIONS>
1  10  8
1  8  8
10  24  8
14  16  8
15  19  8
15  20  8
18  24  8
19  22  8
20  23  8
22  25  8
23  25  8
26  28  8
26  29  8
28  30  8
29  31  8
30  32  8
31  32  8
5  14  8
5  6  8
6  7  8
7  16  8
8  18  8

> <PUBCHEM_BOND_DEF_STEREO_COUNT>
1

> <PUBCHEM_BOND_UDEF_STEREO_COUNT>
0

> <PUBCHEM_CACTVS_COMPLEXITY>
648

> <PUBCHEM_CACTVS_HBOND_ACCEPTOR>
9

> <PUBCHEM_CACTVS_HBOND_DONOR>
3

> <PUBCHEM_CACTVS_ROTATABLE_BOND>
7

> <PUBCHEM_CACTVS_SUBSKEYS>
AAADceB78AAAAAAAAAAAAAAAAAAAAWLAAAAwYAAAAAAAAAAB9AAAHgAcCAAADAzBngQz9pN6AgCrAzdzdgCSBCQnMgA/mAG+fNqIZvrC2ZOUcYhkyJPI2WeUwBAOAAABAAAAAAAAAAIAAAAAAAAAAAAAAA==

> <PUBCHEM_CACTVS_TAUTO_COUNT>
26

> <PUBCHEM_CACTVS_TPSA>
161

> <PUBCHEM_COMPONENT_COUNT>
1

> <PUBCHEM_COMPOUND_CANONICALIZED>
1

> <PUBCHEM_COMPOUND_CID>
6886124

> <PUBCHEM_COORDINATE_TYPE>
1
5
255

> <PUBCHEM_EXACT_MASS>
433.161086

> <PUBCHEM_HEAVY_ATOM_COUNT>
32

> <PUBCHEM_ISOTOPIC_ATOM_COUNT>
0

> <PUBCHEM_IUPAC_CAS_NAME>
1-(4-amino-1,2,5-oxadiazol-3-yl)-N-[(E)-(3-hydroxyphenyl)methylideneamino]-5-[(N-methylanilino)methyl]-4-triazolecarboxamide

> <PUBCHEM_IUPAC_INCHI>
InChI=1S/C20H19N9O3/c1-28(14-7-3-2-4-8-14)12-16-17(23-27-29(16)19-18(21)25-32-26-19)20(31)24-22-11-13-6-5-9-15(30)10-13/h2-11,30H,12H2,1H3,(H2,21,25)(H,24,31)/b22-11+

> <PUBCHEM_IUPAC_INCHIKEY>
FFOGVUHQVDOHFT-SSDVNMTOSA-N

> <PUBCHEM_IUPAC_NAME>
1-(4-amino-1,2,5-oxadiazol-3-yl)-N-[(E)-(3-hydroxyphenyl)methylideneamino]-5-[(N-methylanilino)methyl]triazole-4-carboxamide

> <PUBCHEM_IUPAC_OPENEYE_NAME>
1-(4-amino-1,2,5-oxadiazol-3-yl)-N-[(E)-(3-hydroxyphenyl)methyleneamino]-5-[(N-methylanilino)methyl]triazole-4-carboxamide

> <PUBCHEM_IUPAC_SYSTEMATIC_NAME>
1-(4-azanyl-1,2,5-oxadiazol-3-yl)-N-[(E)-(3-hydroxyphenyl)methylideneamino]-5-[[methyl(phenyl)amino]methyl]-1,2,3-triazole-4-carboxamide

> <PUBCHEM_IUPAC_TRADITIONAL_NAME>
1-(4-aminofurazan-3-yl)-N-[(E)-(3-hydroxybenzylidene)amino]-5-[(N-methylanilino)methyl]triazole-4-carboxamide

> <PUBCHEM_MOLECULAR_FORMULA>
C20H19N9O3

> <PUBCHEM_MOLECULAR_WEIGHT>
433.42336

> <PUBCHEM_MONOISOTOPIC_WEIGHT>
433.161086

> <PUBCHEM_OPENEYE_CAN_SMILES>
CN(CC1=C(N=NN1C2=NON=C2N)C(=O)NN=CC3=CC(=CC=C3)O)C4=CC=CC=C4

> <PUBCHEM_OPENEYE_ISO_SMILES>
CN(CC1=C(N=NN1C2=NON=C2N)C(=O)N/N=C/C3=CC(=CC=C3)O)C4=CC=CC=C4

> <PUBCHEM_TOTAL_CHARGE>
0

> <PUBCHEM_XLOGP3_AA>
1.7

$$$$
Written by BCL::WriteToMDL,100335
MBcorina  10171218483D 1   1.00000     0.00000 
CORINA 3.49 0026  01.06.2011
 47 50  0  0  0  0  0  0  0  0999 V2000
   -0.0812    1.0233   -0.5343 O   0  0  0  1  0  2  0  0  0  0  0  0
    1.0833    2.7584    0.2653 O   0  0  0  1  0  1  0  0  0  0  0  0
   -1.9224   -3.2942    0.3636 N   0  0  0  1  0  3  0  0  0  0  0  0
    4.5798    1.7637   -1.9465 N   0  0  0  1  0  3  0  0  0  0  0  0
    3.2974    3.4641   -1.4198 N   0  0  0  1  0  2  0  0  0  0  0  0
   -0.8710   -2.4994   -0.0797 C   0  0  0  1  0  3  0  0  0  0  0  0
    3.3566    2.1540   -1.4689 C   0  0  0  1  0  3  0  0  0  0  0  0
    1.2480   -0.9309   -0.9302 C   0  0  0  1  0  3  0  0  0  0  0  0
    2.2700    1.2399   -1.0705 C   0  0  0  1  0  3  0  0  0  0  0  0
    0.0474   -0.3250   -0.5104 C   0  0  0  1  0  3  0  0  0  0  0  0
    5.3045    2.9130   -2.2017 C   0  0  0  1  0  3  0  0  0  0  0  0
   -1.7898   -4.7532    0.3601 C   0  0  0  1  0  4  0  0  0  0  0  0
   -3.1628   -2.6725    0.8341 C   0  0  0  1  0  4  0  0  0  0  0  0
   -1.0016   -1.1176   -0.0744 C   0  0  0  1  0  3  0  0  0  0  0  0
    2.3474   -0.1242   -1.3154 C   0  0  0  1  0  3  0  0  0  0  0  0
    4.4672    3.9896   -1.8585 C   0  0  0  1  0  3  0  0  0  0  0  0
    0.3094   -3.0968   -0.5268 C   0  0  0  1  0  3  0  0  0  0  0  0
    1.3533   -2.3308   -0.9510 C   0  0  0  1  0  3  0  0  0  0  0  0
    1.0587    1.7370   -0.3962 C   0  0  0  1  0  3  0  0  0  0  0  0
    5.0368    0.3858   -2.1439 C   0  0  0  1  0  4  0  0  0  0  0  0
    6.5810    3.1564   -2.6869 C   0  0  0  1  0  3  0  0  0  0  0  0
   -4.1256   -2.5012   -0.3425 C   0  0  0  1  0  4  0  0  0  0  0  0
   -1.2126   -5.2160    1.6993 C   0  0  0  1  0  4  0  0  0  0  0  0
    4.9337    5.2991   -2.0113 C   0  0  0  1  0  3  0  0  0  0  0  0
    7.0248    4.4545   -2.8313 C   0  0  0  1  0  3  0  0  0  0  0  0
    6.2033    5.5204   -2.4943 C   0  0  0  1  0  3  0  0  0  0  0  0
   -2.7696   -5.2067    0.2106 H   0  0  0  1  0  1  0  0  0  0  0  0
   -1.1225   -5.0554   -0.4471 H   0  0  0  1  0  1  0  0  0  0  0  0
   -3.6232   -3.3077    1.5908 H   0  0  0  1  0  1  0  0  0  0  0  0
   -2.9392   -1.6969    1.2657 H   0  0  0  1  0  1  0  0  0  0  0  0
   -1.9187   -0.6617    0.2683 H   0  0  0  1  0  1  0  0  0  0  0  0
    3.2185   -0.5572   -1.7845 H   0  0  0  1  0  1  0  0  0  0  0  0
    0.3955   -4.1733   -0.5360 H   0  0  0  1  0  1  0  0  0  0  0  0
    2.2603   -2.7998   -1.3028 H   0  0  0  1  0  1  0  0  0  0  0  0
    4.6294   -0.0018   -3.0777 H   0  0  0  1  0  1  0  0  0  0  0  0
    6.1258    0.3669   -2.1870 H   0  0  0  1  0  1  0  0  0  0  0  0
    4.6951   -0.2327   -1.3140 H   0  0  0  1  0  1  0  0  0  0  0  0
    7.2261    2.3314   -2.9509 H   0  0  0  1  0  1  0  0  0  0  0  0
   -4.3492   -3.4768   -0.7741 H   0  0  0  1  0  1  0  0  0  0  0  0
   -5.0485   -2.0387    0.0076 H   0  0  0  1  0  1  0  0  0  0  0  0
   -3.6652   -1.8660   -1.0993 H   0  0  0  1  0  1  0  0  0  0  0  0
   -0.2327   -4.7624    1.8488 H   0  0  0  1  0  1  0  0  0  0  0  0
   -1.8798   -4.9138    2.5065 H   0  0  0  1  0  1  0  0  0  0  0  0
   -1.1139   -6.3015    1.6967 H   0  0  0  1  0  1  0  0  0  0  0  0
    4.2996    6.1339   -1.7514 H   0  0  0  1  0  1  0  0  0  0  0  0
    8.0191    4.6423   -3.2089 H   0  0  0  1  0  1  0  0  0  0  0  0
    6.5629    6.5320   -2.6121 H   0  0  0  1  0  1  0  0  0  0  0  0
  1 10  1  0  0  0  0
  1 19  1  0  0  0  0
  2 19  2  0  0  0  0
  3  6  1  0  0  0  0
  3 12  1  0  0  0  0
  3 13  1  0  0  0  0
  4  7  1  0  0  0  0
  4 11  1  0  0  0  0
  4 20  1  0  0  0  0
  5  7  2  0  0  0  0
  5 16  1  0  0  0  0
  6 14  2  0  0  0  0
  6 17  1  0  0  0  0
  7  9  1  0  0  0  0
  8 10  2  0  0  0  0
  8 15  1  0  0  0  0
  8 18  1  0  0  0  0
  9 15  2  0  0  0  0
  9 19  1  0  0  0  0
 10 14  1  0  0  0  0
 11 16  1  0  0  0  0
 11 21  2  0  0  0  0
 12 23  1  0  0  0  0
 12 27  1  0  0  0  0
 12 28  1  0  0  0  0
 13 22  1  0  0  0  0
 13 29  1  0  0  0  0
 13 30  1  0  0  0  0
 14 31  1  0  0  0  0
 15 32  1  0  0  0  0
 16 24  2  0  0  0  0
 17 18  2  0  0  0  0
 17 33  1  0  0  0  0
 18 34  1  0  0  0  0
 20 35  1  0  0  0  0
 20 36  1  0  0  0  0
 20 37  1  0  0  0  0
 21 25  1  0  0  0  0
 21 38  1  0  0  0  0
 22 39  1  0  0  0  0
 22 40  1  0  0  0  0
 22 41  1  0  0  0  0
 23 42  1  0  0  0  0
 23 43  1  0  0  0  0
 23 44  1  0  0  0  0
 24 26  1  0  0  0  0
 24 45  1  0  0  0  0
 25 26  2  0  0  0  0
 25 46  1  0  0  0  0
 26 47  1  0  0  0  0
M  END
> <Activity>
1.141

> <Mapped(file=504701.csv.activities,property=Cached(PUBCHEM_COMPOUND_CID))>
1.141

> <PUBCHEM_ATOM_DEF_STEREO_COUNT>
0

> <PUBCHEM_ATOM_UDEF_STEREO_COUNT>
0

> <PUBCHEM_BONDANNOTATIONS>
1  10  8
1  19  8
10  14  8
11  16  8
11  21  8
16  24  8
17  18  8
21  25  8
24  26  8
25  26  8
4  11  8
4  7  8
5  16  8
5  7  8
6  14  8
6  17  8
8  10  8
8  15  8
8  18  8
9  15  8
9  19  8

> <PUBCHEM_BOND_DEF_STEREO_COUNT>
0

> <PUBCHEM_BOND_UDEF_STEREO_COUNT>
0

> <PUBCHEM_CACTVS_COMPLEXITY>
560

> <PUBCHEM_CACTVS_HBOND_ACCEPTOR>
3

> <PUBCHEM_CACTVS_HBOND_DONOR>
0

> <PUBCHEM_CACTVS_ROTATABLE_BOND>
4

> <PUBCHEM_CACTVS_SUBSKEYS>
AAADceB7MAAAAAAAAAAAAAAAAAAAAWAAAAAwYIAAAAAAAFiB9AAAHgAAAAAADAzBnwQz3rcMFACoAybybACCiC0hMqAJ2CE+fNiMbqrEuZuWOijuwBvI6aeQ0CMOCAAAAgAIACAQAAAEABAAQAAAAAAAAA==

> <PUBCHEM_CACTVS_TAUTO_COUNT>
1

> <PUBCHEM_CACTVS_TPSA>
47.4

> <PUBCHEM_COMPONENT_COUNT>
1

> <PUBCHEM_COMPOUND_CANONICALIZED>
1

> <PUBCHEM_COMPOUND_CID>
100335

> <PUBCHEM_COORDINATE_TYPE>
1
5
255

> <PUBCHEM_EXACT_MASS>
347.163377

> <PUBCHEM_HEAVY_ATOM_COUNT>
26

> <PUBCHEM_ISOTOPIC_ATOM_COUNT>
0

> <PUBCHEM_IUPAC_CAS_NAME>
7-(diethylamino)-3-(1-methyl-2-benzimidazolyl)-1-benzopyran-2-one

> <PUBCHEM_IUPAC_INCHI>
InChI=1S/C21H21N3O2/c1-4-24(5-2)15-11-10-14-12-16(21(25)26-19(14)13-15)20-22-17-8-6-7-9-18(17)23(20)3/h6-13H,4-5H2,1-3H3

> <PUBCHEM_IUPAC_INCHIKEY>
KZFUMWVJJNDGAU-UHFFFAOYSA-N

> <PUBCHEM_IUPAC_NAME>
7-(diethylamino)-3-(1-methylbenzimidazol-2-yl)chromen-2-one

> <PUBCHEM_IUPAC_OPENEYE_NAME>
7-(diethylamino)-3-(1-methylbenzimidazol-2-yl)chromen-2-one

> <PUBCHEM_IUPAC_SYSTEMATIC_NAME>
7-(diethylamino)-3-(1-methylbenzimidazol-2-yl)chromen-2-one

> <PUBCHEM_IUPAC_TRADITIONAL_NAME>
7-(diethylamino)-3-(1-methylbenzimidazol-2-yl)coumarin

> <PUBCHEM_MOLECULAR_FORMULA>
C21H21N3O2

> <PUBCHEM_MOLECULAR_WEIGHT>
347.41034

> <PUBCHEM_MONOISOTOPIC_WEIGHT>
347.163377

> <PUBCHEM_OPENEYE_CAN_SMILES>
CCN(CC)C1=CC2=C(C=C1)C=C(C(=O)O2)C3=NC4=CC=CC=C4N3C

> <PUBCHEM_OPENEYE_ISO_SMILES>
CCN(CC)C1=CC2=C(C=C1)C=C(C(=O)O2)C3=NC4=CC=CC=C4N3C

> <PUBCHEM_TOTAL_CHARGE>
0

> <PUBCHEM_XLOGP3_AA>
4

$$$$
Written by BCL::WriteToMDL,24817165
MBcorina  10171218483D 1   1.00000     0.00000 
CORINA 3.49 0026  01.06.2011
 54 57  0  0  0  0  0  0  0  0999 V2000
   -1.1836    3.2944    0.3911 O   0  0  0  1  0  1  0  0  0  0  0  0
   -0.0266    1.5251   -0.2926 N   0  0  0  1  0  3  0  0  0  0  0  0
    1.1646   -2.0026   -0.1402 N   0  0  0  1  0  3  0  0  0  0  0  0
   -4.0558    0.0506   -0.8346 N   0  0  0  1  0  3  0  0  0  0  0  0
    1.0314   -0.6015    0.2666 C   0  0  0  1  0  4  0  0  0  0  0  0
    2.3826    0.1027    0.1234 C   0  0  0  1  0  4  0  0  0  0  0  0
    0.0000    0.0946   -0.6270 C   0  0  0  1  0  4  0  0  0  0  0  0
    2.2523    1.5578    0.5793 C   0  0  0  1  0  4  0  0  0  0  0  0
    1.2348    2.2784   -0.3108 C   0  0  0  1  0  4  0  0  0  0  0  0
   -1.1868    2.1359    0.0193 C   0  0  0  1  0  3  0  0  0  0  0  0
   -2.4553    1.4029   -0.0895 C   0  0  0  1  0  3  0  0  0  0  0  0
    0.2839   -2.9627    0.3631 C   0  0  0  1  0  3  0  0  0  0  0  0
   -3.5954    1.4687    0.8430 C   0  0  0  1  0  3  0  0  0  0  0  0
   -2.8103    0.5274   -1.0730 C   0  0  0  1  0  3  0  0  0  0  0  0
   -4.5681    0.5995    0.3229 C   0  0  0  1  0  3  0  0  0  0  0  0
    0.4087   -4.2914   -0.0216 C   0  0  0  1  0  3  0  0  0  0  0  0
   -0.7155   -2.5918    1.2540 C   0  0  0  1  0  3  0  0  0  0  0  0
   -0.4640   -5.2384    0.4780 C   0  0  0  1  0  3  0  0  0  0  0  0
   -3.8428    2.1689    2.0207 C   0  0  0  1  0  3  0  0  0  0  0  0
   -5.7760    0.4472    0.9952 C   0  0  0  1  0  3  0  0  0  0  0  0
   -1.4613   -4.8647    1.3597 C   0  0  0  1  0  3  0  0  0  0  0  0
   -1.5846   -3.5435    1.7496 C   0  0  0  1  0  3  0  0  0  0  0  0
   -4.7615   -0.9079   -1.6887 C   0  0  0  1  0  4  0  0  0  0  0  0
   -5.0458    2.0045    2.6722 C   0  0  0  1  0  3  0  0  0  0  0  0
   -6.0077    1.1464    2.1598 C   0  0  0  1  0  3  0  0  0  0  0  0
   -0.3292   -6.6803    0.0611 C   0  0  0  1  0  4  0  0  0  0  0  0
   -2.4119   -5.9006    1.9023 C   0  0  0  1  0  4  0  0  0  0  0  0
    0.7046   -0.5538    1.3054 H   0  0  0  1  0  1  0  0  0  0  0  0
    3.1242   -0.4058    0.7394 H   0  0  0  1  0  1  0  0  0  0  0  0
    2.6973    0.0758   -0.9198 H   0  0  0  1  0  1  0  0  0  0  0  0
   -0.9849   -0.3393   -0.4546 H   0  0  0  1  0  1  0  0  0  0  0  0
    0.2790   -0.0310   -1.6731 H   0  0  0  1  0  1  0  0  0  0  0  0
    1.9137    1.5856    1.6150 H   0  0  0  1  0  1  0  0  0  0  0  0
    3.2204    2.0522    0.4990 H   0  0  0  1  0  1  0  0  0  0  0  0
    1.6144    2.3308   -1.3312 H   0  0  0  1  0  1  0  0  0  0  0  0
    1.0645    3.2853    0.0701 H   0  0  0  1  0  1  0  0  0  0  0  0
    1.8644   -2.2634   -0.7592 H   0  0  0  1  0  1  0  0  0  0  0  0
   -2.1916    0.2549   -1.9152 H   0  0  0  1  0  1  0  0  0  0  0  0
    1.1871   -4.5838   -0.7109 H   0  0  0  1  0  1  0  0  0  0  0  0
   -0.8124   -1.5602    1.5589 H   0  0  0  1  0  1  0  0  0  0  0  0
   -3.0956    2.8379    2.4215 H   0  0  0  1  0  1  0  0  0  0  0  0
   -6.5319   -0.2182    0.6047 H   0  0  0  1  0  1  0  0  0  0  0  0
   -2.3614   -3.2559    2.4426 H   0  0  0  1  0  1  0  0  0  0  0  0
   -4.5360   -1.9223   -1.3598 H   0  0  0  1  0  1  0  0  0  0  0  0
   -5.8353   -0.7339   -1.6199 H   0  0  0  1  0  1  0  0  0  0  0  0
   -4.4383   -0.7806   -2.7218 H   0  0  0  1  0  1  0  0  0  0  0  0
   -5.2406    2.5460    3.5862 H   0  0  0  1  0  1  0  0  0  0  0  0
   -6.9472    1.0254    2.6784 H   0  0  0  1  0  1  0  0  0  0  0  0
    0.3387   -7.1969    0.7504 H   0  0  0  1  0  1  0  0  0  0  0  0
   -1.3094   -7.1568    0.0792 H   0  0  0  1  0  1  0  0  0  0  0  0
    0.0804   -6.7301   -0.9477 H   0  0  0  1  0  1  0  0  0  0  0  0
   -2.0059   -6.3194    2.8231 H   0  0  0  1  0  1  0  0  0  0  0  0
   -3.3762   -5.4362    2.1085 H   0  0  0  1  0  1  0  0  0  0  0  0
   -2.5411   -6.6954    1.1677 H   0  0  0  1  0  1  0  0  0  0  0  0
  1 10  2  0  0  0  0
  2  7  1  0  0  0  0
  2  9  1  0  0  0  0
  2 10  1  0  0  0  0
  3  5  1  0  0  0  0
  3 12  1  0  0  0  0
  3 37  1  0  0  0  0
  4 14  1  0  0  0  0
  4 15  1  0  0  0  0
  4 23  1  0  0  0  0
  5  6  1  0  0  0  0
  5  7  1  0  0  0  0
  5 28  1  0  0  0  0
  6  8  1  0  0  0  0
  6 29  1  0  0  0  0
  6 30  1  0  0  0  0
  7 31  1  0  0  0  0
  7 32  1  0  0  0  0
  8  9  1  0  0  0  0
  8 33  1  0  0  0  0
  8 34  1  0  0  0  0
  9 35  1  0  0  0  0
  9 36  1  0  0  0  0
 10 11  1  0  0  0  0
 11 13  1  0  0  0  0
 11 14  2  0  0  0  0
 12 16  2  0  0  0  0
 12 17  1  0  0  0  0
 13 15  1  0  0  0  0
 13 19  2  0  0  0  0
 14 38  1  0  0  0  0
 15 20  2  0  0  0  0
 16 18  1  0  0  0  0
 16 39  1  0  0  0  0
 17 22  2  0  0  0  0
 17 40  1  0  0  0  0
 18 21  2  0  0  0  0
 18 26  1  0  0  0  0
 19 24  1  0  0  0  0
 19 41  1  0  0  0  0
 20 25  1  0  0  0  0
 20 42  1  0  0  0  0
 21 22  1  0  0  0  0
 21 27  1  0  0  0  0
 22 43  1  0  0  0  0
 23 44  1  0  0  0  0
 23 45  1  0  0  0  0
 23 46  1  0  0  0  0
 24 25  2  0  0  0  0
 24 47  1  0  0  0  0
 25 48  1  0  0  0  0
 26 49  1  0  0  0  0
 26 50  1  0  0  0  0
 26 51  1  0  0  0  0
 27 52  1  0  0  0  0
 27 53  1  0  0  0  0
 27 54  1  0  0  0  0
M  END
> <Activity>
0.77115

> <Mapped(file=504701.csv.activities,property=Cached(PUBCHEM_COMPOUND_CID))>
0.77115

> <PUBCHEM_ATOM_DEF_STEREO_COUNT>
0

> <PUBCHEM_ATOM_UDEF_STEREO_COUNT>
1

> <PUBCHEM_BONDANNOTATIONS>
11  13  8
11  14  8
12  16  8
12  17  8
13  15  8
13  19  8
15  20  8
16  18  8
17  22  8
18  21  8
19  24  8
20  25  8
21  22  8
24  25  8
5  3  3
4  14  8
4  15  8

> <PUBCHEM_BOND_DEF_STEREO_COUNT>
0

> <PUBCHEM_BOND_UDEF_STEREO_COUNT>
0

> <PUBCHEM_CACTVS_COMPLEXITY>
524

> <PUBCHEM_CACTVS_HBOND_ACCEPTOR>
2

> <PUBCHEM_CACTVS_HBOND_DONOR>
1

> <PUBCHEM_CACTVS_ROTATABLE_BOND>
3

> <PUBCHEM_CACTVS_SUBSKEYS>
AAADceB7IAAAAAAAAAAAAAAAAAAAAWAAAAA8YIAAAAAAAFgB9AAAHgAQAAAADCjBngQ+wPPMEACoAzV3VACCgCA1AiAI2KE4ZNgIYPrA1ZGUIYhglgDIyccciMCOiAAAQAASAAAQAACAACQAAAAAAAAAAA==

> <PUBCHEM_CACTVS_TAUTO_COUNT>
1

> <PUBCHEM_CACTVS_TPSA>
37.3

> <PUBCHEM_COMPONENT_COUNT>
1

> <PUBCHEM_COMPOUND_CANONICALIZED>
1

> <PUBCHEM_COMPOUND_CID>
24817165

> <PUBCHEM_COORDINATE_TYPE>
1
5
255

> <PUBCHEM_EXACT_MASS>
361.215412

> <PUBCHEM_HEAVY_ATOM_COUNT>
27

> <PUBCHEM_ISOTOPIC_ATOM_COUNT>
0

> <PUBCHEM_IUPAC_CAS_NAME>
[3-(3,4-dimethylanilino)-1-piperidinyl]-(1-methyl-3-indolyl)methanone

> <PUBCHEM_IUPAC_INCHI>
InChI=1S/C23H27N3O/c1-16-10-11-18(13-17(16)2)24-19-7-6-12-26(14-19)23(27)21-15-25(3)22-9-5-4-8-20(21)22/h4-5,8-11,13,15,19,24H,6-7,12,14H2,1-3H3

> <PUBCHEM_IUPAC_INCHIKEY>
IGHGJSNFCFMHKF-UHFFFAOYSA-N

> <PUBCHEM_IUPAC_NAME>
[3-(3,4-dimethylanilino)piperidin-1-yl]-(1-methylindol-3-yl)methanone

> <PUBCHEM_IUPAC_OPENEYE_NAME>
[3-(3,4-dimethylanilino)-1-piperidyl]-(1-methylindol-3-yl)methanone

> <PUBCHEM_IUPAC_SYSTEMATIC_NAME>
[3-[(3,4-dimethylphenyl)amino]piperidin-1-yl]-(1-methylindol-3-yl)methanone

> <PUBCHEM_IUPAC_TRADITIONAL_NAME>
[3-(3,4-dimethylanilino)piperidino]-(1-methylindol-3-yl)methanone

> <PUBCHEM_MOLECULAR_FORMULA>
C23H27N3O

> <PUBCHEM_MOLECULAR_WEIGHT>
361.47998

> <PUBCHEM_MONOISOTOPIC_WEIGHT>
361.215412

> <PUBCHEM_OPENEYE_CAN_SMILES>
CC1=C(C=C(C=C1)NC2CCCN(C2)C(=O)C3=CN(C4=CC=CC=C43)C)C

> <PUBCHEM_OPENEYE_ISO_SMILES>
CC1=C(C=C(C=C1)NC2CCCN(C2)C(=O)C3=CN(C4=CC=CC=C43)C)C

> <PUBCHEM_TOTAL_CHARGE>
0

> <PUBCHEM_XLOGP3_AA>
4.4

$$$$
Written by BCL::WriteToMDL,12005118
MBcorina  10171218483D 1   1.00000     0.00000 
CORINA 3.49 0026  01.06.2011
 34 36  0  0  0  0  0  0  0  0999 V2000
   -1.1063   -0.0172    2.0918 F   0  0  0  1  0  1  0  0  0  0  0  0
    1.3099   -2.6535   -2.1293 F   0  0  0  1  0  1  0  0  0  0  0  0
    1.2784    0.0428   -2.0045 F   0  0  0  1  0  1  0  0  0  0  0  0
    0.0917    1.3915    0.0719 N   0  0  0  1  0  3  0  0  0  0  0  0
   -1.1190   -2.7859    2.0381 N   0  0  0  1  0  2  0  0  0  0  0  0
    0.1037   -2.7936   -0.0646 C   0  0  0  1  0  3  0  0  0  0  0  0
    0.1042   -4.1877   -0.1034 C   0  0  0  1  0  3  0  0  0  0  0  0
   -0.5381   -2.1000    1.0580 C   0  0  0  1  0  3  0  0  0  0  0  0
   -0.5179   -4.8718    0.9460 C   0  0  0  1  0  3  0  0  0  0  0  0
    0.0832   -0.0043    0.0485 C   0  0  0  1  0  3  0  0  0  0  0  0
   -1.1395   -4.1149    2.0364 C   0  0  0  1  0  3  0  0  0  0  0  0
   -0.5250   -0.6904    1.0748 C   0  0  0  1  0  3  0  0  0  0  0  0
    0.7126   -2.0338   -1.0880 C   0  0  0  1  0  3  0  0  0  0  0  0
    0.6943   -0.6755   -1.0206 C   0  0  0  1  0  3  0  0  0  0  0  0
    0.7533   -4.9335   -1.2408 C   0  0  0  1  0  4  0  0  0  0  0  0
   -0.5594   -6.2794    0.9799 C   0  0  0  1  0  3  0  0  0  0  0  0
   -1.7588   -4.8306    3.0827 C   0  0  0  1  0  3  0  0  0  0  0  0
   -1.1737   -6.9061    2.0176 C   0  0  0  1  0  3  0  0  0  0  0  0
    1.4663    1.9094    0.0855 C   0  0  0  1  0  4  0  0  0  0  0  0
   -0.6669    1.9416   -1.0595 C   0  0  0  1  0  4  0  0  0  0  0  0
   -1.7650   -6.1886    3.0564 C   0  0  0  1  0  3  0  0  0  0  0  0
    1.8227   -5.0261   -1.0512 H   0  0  0  1  0  1  0  0  0  0  0  0
    0.3116   -5.9265   -1.3232 H   0  0  0  1  0  1  0  0  0  0  0  0
    0.5952   -4.3872   -2.1706 H   0  0  0  1  0  1  0  0  0  0  0  0
   -0.1067   -6.8562    0.1869 H   0  0  0  1  0  1  0  0  0  0  0  0
   -2.2252   -4.3015    3.9005 H   0  0  0  1  0  1  0  0  0  0  0  0
   -1.2032   -7.9855    2.0388 H   0  0  0  1  0  1  0  0  0  0  0  0
   -1.6997    1.5974   -1.0060 H   0  0  0  1  0  1  0  0  0  0  0  0
   -0.6441    3.0305   -1.0170 H   0  0  0  1  0  1  0  0  0  0  0  0
   -0.2197    1.6050   -1.9948 H   0  0  0  1  0  1  0  0  0  0  0  0
    1.9908    1.5717   -0.8083 H   0  0  0  1  0  1  0  0  0  0  0  0
    1.4439    2.9990    0.1037 H   0  0  0  1  0  1  0  0  0  0  0  0
    1.9843    1.5419    0.9714 H   0  0  0  1  0  1  0  0  0  0  0  0
   -2.2416   -6.7274    3.8620 H   0  0  0  1  0  1  0  0  0  0  0  0
  1 12  1  0  0  0  0
  2 13  1  0  0  0  0
  3 14  1  0  0  0  0
  4 10  1  0  0  0  0
  4 19  1  0  0  0  0
  4 20  1  0  0  0  0
  5  8  2  0  0  0  0
  5 11  1  0  0  0  0
  6  7  2  0  0  0  0
  6  8  1  0  0  0  0
  6 13  1  0  0  0  0
  7  9  1  0  0  0  0
  7 15  1  0  0  0  0
  8 12  1  0  0  0  0
  9 11  1  0  0  0  0
  9 16  2  0  0  0  0
 10 12  2  0  0  0  0
 10 14  1  0  0  0  0
 11 17  2  0  0  0  0
 13 14  2  0  0  0  0
 15 22  1  0  0  0  0
 15 23  1  0  0  0  0
 15 24  1  0  0  0  0
 16 18  1  0  0  0  0
 16 25  1  0  0  0  0
 17 21  1  0  0  0  0
 17 26  1  0  0  0  0
 18 21  2  0  0  0  0
 18 27  1  0  0  0  0
 19 31  1  0  0  0  0
 19 32  1  0  0  0  0
 19 33  1  0  0  0  0
 20 28  1  0  0  0  0
 20 29  1  0  0  0  0
 20 30  1  0  0  0  0
 21 34  1  0  0  0  0
M  END
> <Activity>
1.005

> <Mapped(file=504701.csv.activities,property=Cached(PUBCHEM_COMPOUND_CID))>
1.005

> <PUBCHEM_ATOM_DEF_STEREO_COUNT>
0

> <PUBCHEM_ATOM_UDEF_STEREO_COUNT>
0

> <PUBCHEM_BONDANNOTATIONS>
10  12  8
10  14  8
11  17  8
13  14  8
16  18  8
17  21  8
18  21  8
5  11  8
5  8  8
6  13  8
6  7  8
6  8  8
7  9  8
8  12  8
9  11  8
9  16  8

> <PUBCHEM_BOND_DEF_STEREO_COUNT>
0

> <PUBCHEM_BOND_UDEF_STEREO_COUNT>
0

> <PUBCHEM_CACTVS_COMPLEXITY>
379

> <PUBCHEM_CACTVS_HBOND_ACCEPTOR>
5

> <PUBCHEM_CACTVS_HBOND_DONOR>
0

> <PUBCHEM_CACTVS_ROTATABLE_BOND>
1

> <PUBCHEM_CACTVS_SUBSKEYS>
AAADccB7AYAAAAAAAAAAAAAAAAAAAAAAAAA8YIAAAAAAAACx/AAAHQAAAAAADAiBHgwywPMIEACgAyRiRACCgCAhAiAImCA4ZJgIIOLA0dGEJAhggADIyAcQgMAOiAAAAAQCAAAQAAAACAQAAAAAAAAAAA==

> <PUBCHEM_CACTVS_TAUTO_COUNT>
1

> <PUBCHEM_CACTVS_TPSA>
16.1

> <PUBCHEM_COMPONENT_COUNT>
1

> <PUBCHEM_COMPOUND_CANONICALIZED>
1

> <PUBCHEM_COMPOUND_CID>
12005118

> <PUBCHEM_COORDINATE_TYPE>
1
5
255

> <PUBCHEM_EXACT_MASS>
290.103083

> <PUBCHEM_HEAVY_ATOM_COUNT>
21

> <PUBCHEM_ISOTOPIC_ATOM_COUNT>
0

> <PUBCHEM_IUPAC_CAS_NAME>
1,2,4-trifluoro-N,N,9-trimethyl-3-acridinamine

> <PUBCHEM_IUPAC_INCHI>
InChI=1S/C16H13F3N2/c1-8-9-6-4-5-7-10(9)20-15-11(8)12(17)13(18)16(14(15)19)21(2)3/h4-7H,1-3H3

> <PUBCHEM_IUPAC_INCHIKEY>
CTHZKMOIZZRYOT-UHFFFAOYSA-N

> <PUBCHEM_IUPAC_NAME>
1,2,4-trifluoro-N,N,9-trimethylacridin-3-amine

> <PUBCHEM_IUPAC_OPENEYE_NAME>
1,2,4-trifluoro-N,N,9-trimethyl-acridin-3-amine

> <PUBCHEM_IUPAC_SYSTEMATIC_NAME>
1,2,4-tris(fluoranyl)-N,N,9-trimethyl-acridin-3-amine

> <PUBCHEM_IUPAC_TRADITIONAL_NAME>
dimethyl-(1,2,4-trifluoro-9-methyl-acridin-3-yl)amine

> <PUBCHEM_MOLECULAR_FORMULA>
C16H13F3N2

> <PUBCHEM_MOLECULAR_WEIGHT>
290.28303

> <PUBCHEM_MONOISOTOPIC_WEIGHT>
290.103083

> <PUBCHEM_OPENEYE_CAN_SMILES>
CC1=C2C(=C(C(=C(C2=NC3=CC=CC=C13)F)N(C)C)F)F

> <PUBCHEM_OPENEYE_ISO_SMILES>
CC1=C2C(=C(C(=C(C2=NC3=CC=CC=C13)F)N(C)C)F)F

> <PUBCHEM_TOTAL_CHARGE>
0

> <PUBCHEM_XLOGP3_AA>
4.3

$$$$
Written by BCL::WriteToMDL,649354
MBcorina  10171218483D 1   1.00000     0.00000 
CORINA 3.49 0026  01.06.2011
 34 36  0  0  0  0  0  0  0  0999 V2000
   -0.0218    1.7569    0.0117 S   0  0  0  1  0  2  0  0  0  0  0  0
    3.0987   -2.1681   -0.0387 O   0  0  0  1  0  2  0  0  0  0  0  0
    1.2348   -0.4185   -0.0120 N   0  0  0  1  0  2  0  0  0  0  0  0
   -0.9197   -3.4285   -0.0063 N   0  0  0  1  0  1  0  0  0  0  0  0
   -4.7624   -0.0808   -0.5575 C   0  0  0  1  0  4  0  0  0  0  0  0
   -4.2865    1.2674    0.0406 C   0  0  0  1  0  4  0  0  0  0  0  0
   -3.7403   -1.0838    0.0328 C   0  0  0  1  0  4  0  0  0  0  0  0
   -2.7483    1.1487    0.0344 C   0  0  0  1  0  4  0  0  0  0  0  0
   -2.4221   -0.3302    0.0238 C   0  0  0  1  0  3  0  0  0  0  0  0
   -1.1925   -0.8751    0.0092 C   0  0  0  1  0  3  0  0  0  0  0  0
    0.0021   -0.0041    0.0020 C   0  0  0  1  0  3  0  0  0  0  0  0
    2.1786    0.5051   -0.0160 C   0  0  0  1  0  3  0  0  0  0  0  0
   -1.0404   -2.2990    0.0006 C   0  0  0  1  0  2  0  0  0  0  0  0
    3.6219    0.1632   -0.0321 C   0  0  0  1  0  3  0  0  0  0  0  0
    1.7402    1.7808   -0.0050 C   0  0  0  1  0  3  0  0  0  0  0  0
    4.0266   -1.1753   -0.0431 C   0  0  0  1  0  3  0  0  0  0  0  0
    4.5800    1.1738   -0.0421 C   0  0  0  1  0  3  0  0  0  0  0  0
    5.3762   -1.4856   -0.0581 C   0  0  0  1  0  3  0  0  0  0  0  0
    5.9223    0.8504   -0.0570 C   0  0  0  1  0  3  0  0  0  0  0  0
    6.3194   -0.4746   -0.0616 C   0  0  0  1  0  3  0  0  0  0  0  0
   -5.7734   -0.3170   -0.2253 H   0  0  0  1  0  1  0  0  0  0  0  0
   -4.7049   -0.0640   -1.6458 H   0  0  0  1  0  1  0  0  0  0  0  0
   -4.6090    2.0993   -0.5856 H   0  0  0  1  0  1  0  0  0  0  0  0
   -4.6573    1.3869    1.0586 H   0  0  0  1  0  1  0  0  0  0  0  0
   -4.0172   -1.3543    1.0517 H   0  0  0  1  0  1  0  0  0  0  0  0
   -3.6745   -1.9733   -0.5937 H   0  0  0  1  0  1  0  0  0  0  0  0
   -2.3414    1.6263   -0.8570 H   0  0  0  1  0  1  0  0  0  0  0  0
   -2.3351    1.6150    0.9288 H   0  0  0  1  0  1  0  0  0  0  0  0
    2.3616    2.6641   -0.0062 H   0  0  0  1  0  1  0  0  0  0  0  0
    4.2734    2.2093   -0.0385 H   0  0  0  1  0  1  0  0  0  0  0  0
    5.6922   -2.5183   -0.0666 H   0  0  0  1  0  1  0  0  0  0  0  0
    6.6647    1.6347   -0.0651 H   0  0  0  1  0  1  0  0  0  0  0  0
    7.3710   -0.7205   -0.0729 H   0  0  0  1  0  1  0  0  0  0  0  0
    2.8212   -2.4509   -0.9208 H   0  0  0  1  0  1  0  0  0  0  0  0
  1 11  1  0  0  0  0
  1 15  1  0  0  0  0
  2 16  1  0  0  0  0
  2 34  1  0  0  0  0
  3 11  2  0  0  0  0
  3 12  1  0  0  0  0
  4 13  3  0  0  0  0
  5  6  1  0  0  0  0
  5  7  1  0  0  0  0
  5 21  1  0  0  0  0
  5 22  1  0  0  0  0
  6  8  1  0  0  0  0
  6 23  1  0  0  0  0
  6 24  1  0  0  0  0
  7  9  1  0  0  0  0
  7 25  1  0  0  0  0
  7 26  1  0  0  0  0
  8  9  1  0  0  0  0
  8 27  1  0  0  0  0
  8 28  1  0  0  0  0
  9 10  2  0  0  0  0
 10 11  1  0  0  0  0
 10 13  1  0  0  0  0
 12 14  1  0  0  0  0
 12 15  2  0  0  0  0
 14 16  1  0  0  0  0
 14 17  2  0  0  0  0
 15 29  1  0  0  0  0
 16 18  2  0  0  0  0
 17 19  1  0  0  0  0
 17 30  1  0  0  0  0
 18 20  1  0  0  0  0
 18 31  1  0  0  0  0
 19 20  2  0  0  0  0
 19 32  1  0  0  0  0
 20 33  1  0  0  0  0
M  END
> <Activity>
6.326

> <Mapped(file=504701.csv.activities,property=Cached(PUBCHEM_COMPOUND_CID))>
6.326

> <PUBCHEM_ATOM_DEF_STEREO_COUNT>
0

> <PUBCHEM_ATOM_UDEF_STEREO_COUNT>
0

> <PUBCHEM_BONDANNOTATIONS>
1  11  8
1  15  8
12  15  8
14  16  8
14  17  8
16  18  8
17  19  8
18  20  8
19  20  8
3  11  8
3  12  8

> <PUBCHEM_BOND_DEF_STEREO_COUNT>
0

> <PUBCHEM_BOND_UDEF_STEREO_COUNT>
0

> <PUBCHEM_CACTVS_COMPLEXITY>
431

> <PUBCHEM_CACTVS_HBOND_ACCEPTOR>
3

> <PUBCHEM_CACTVS_HBOND_DONOR>
1

> <PUBCHEM_CACTVS_ROTATABLE_BOND>
2

> <PUBCHEM_CACTVS_SUBSKEYS>
AAADccB7IABAAAAAAAAAAAAAAAAAAeIAAAAwAAAAAAAAAAABwAAAHgQACAAADAyF3gCwh5IIEgi0ByRiRACi8KBhKjgIiDQ2LJgIpqKikROEcAhmwBGomAeQwKAOAAAAAAAIAAAAAAAAABAAAAAAAAAAAA==

> <PUBCHEM_CACTVS_TAUTO_COUNT>
3

> <PUBCHEM_CACTVS_TPSA>
85.2

> <PUBCHEM_COMPONENT_COUNT>
1

> <PUBCHEM_COMPOUND_CANONICALIZED>
1

> <PUBCHEM_COMPOUND_CID>
649354

> <PUBCHEM_COORDINATE_TYPE>
1
5
255

> <PUBCHEM_EXACT_MASS>
282.082684

> <PUBCHEM_HEAVY_ATOM_COUNT>
20

> <PUBCHEM_ISOTOPIC_ATOM_COUNT>
0

> <PUBCHEM_IUPAC_CAS_NAME>
2-cyclopentylidene-2-[4-(2-hydroxyphenyl)-2-thiazolyl]acetonitrile

> <PUBCHEM_IUPAC_INCHI>
InChI=1S/C16H14N2OS/c17-9-13(11-5-1-2-6-11)16-18-14(10-20-16)12-7-3-4-8-15(12)19/h3-4,7-8,10,19H,1-2,5-6H2

> <PUBCHEM_IUPAC_INCHIKEY>
TWHDANXBCWCHBY-UHFFFAOYSA-N

> <PUBCHEM_IUPAC_NAME>
2-cyclopentylidene-2-[4-(2-hydroxyphenyl)-1,3-thiazol-2-yl]acetonitrile

> <PUBCHEM_IUPAC_OPENEYE_NAME>
2-cyclopentylidene-2-[4-(2-hydroxyphenyl)thiazol-2-yl]acetonitrile

> <PUBCHEM_IUPAC_SYSTEMATIC_NAME>
2-cyclopentylidene-2-[4-(2-hydroxyphenyl)-1,3-thiazol-2-yl]ethanenitrile

> <PUBCHEM_IUPAC_TRADITIONAL_NAME>
2-cyclopentylidene-2-[4-(2-hydroxyphenyl)thiazol-2-yl]acetonitrile

> <PUBCHEM_MOLECULAR_FORMULA>
C16H14N2OS

> <PUBCHEM_MOLECULAR_WEIGHT>
282.36016

> <PUBCHEM_MONOISOTOPIC_WEIGHT>
282.082684

> <PUBCHEM_OPENEYE_CAN_SMILES>
C1CCC(=C(C#N)C2=NC(=CS2)C3=CC=CC=C3O)C1

> <PUBCHEM_OPENEYE_ISO_SMILES>
C1CCC(=C(C#N)C2=NC(=CS2)C3=CC=CC=C3O)C1

> <PUBCHEM_TOTAL_CHARGE>
0

> <PUBCHEM_XLOGP3_AA>
3.5

$$$$
Written by BCL::WriteToMDL,16830239
MBcorina  10171218483D 1   1.00000     0.00000 
CORINA 3.49 0026  01.06.2011
 54 57  0  0  0  0  0  0  0  0999 V2000
   -0.0155    1.2103   -0.1665 S   0  0  0  1  0  4  0  0  0  0  0  0
   -0.8627    5.7900   -3.4993 O   0  0  0  1  0  2  0  0  0  0  0  0
    0.0212   -0.2054   -0.2840 O   0  0  0  1  0  1  0  0  0  0  0  0
    1.1528    2.0189   -0.1442 O   0  0  0  1  0  1  0  0  0  0  0  0
   -0.6672    3.8965    0.9148 O   0  0  0  1  0  2  0  0  0  0  0  0
   -2.5103   -0.2095    4.0551 O   0  0  0  1  0  2  0  0  0  0  0  0
   -0.8446    2.9078   -3.9759 N   0  0  0  1  0  3  0  0  0  0  0  0
   -0.9408    1.7601   -1.4251 N   0  0  0  1  0  3  0  0  0  0  0  0
   -1.7536    3.4730   -2.9699 C   0  0  0  1  0  4  0  0  0  0  0  0
    0.5664    3.0541   -3.5571 C   0  0  0  1  0  4  0  0  0  0  0  0
    0.9918    4.3668   -4.2543 C   0  0  0  1  0  4  0  0  0  0  0  0
   -0.9969    3.5536   -5.2091 C   0  0  0  1  0  3  0  0  0  0  0  0
    0.0502    4.4383   -5.4400 C   0  0  0  1  0  3  0  0  0  0  0  0
   -1.2021    3.1943   -1.5702 C   0  0  0  1  0  4  0  0  0  0  0  0
   -1.8692    4.9613   -3.1770 C   0  0  0  1  0  3  0  0  0  0  0  0
   -2.0008    3.4271   -6.1674 C   0  0  0  1  0  3  0  0  0  0  0  0
    0.0912    5.1868   -6.5970 C   0  0  0  1  0  3  0  0  0  0  0  0
   -1.9537    4.1765   -7.3247 C   0  0  0  1  0  3  0  0  0  0  0  0
   -2.9980    5.6850   -3.0699 C   0  0  0  1  0  3  0  0  0  0  0  0
   -0.9110    5.0581   -7.5421 C   0  0  0  1  0  3  0  0  0  0  0  0
   -0.8936    1.5635    1.3197 C   0  0  0  1  0  3  0  0  0  0  0  0
   -2.6510    7.0280   -3.3438 C   0  0  0  1  0  3  0  0  0  0  0  0
   -1.3309    7.0446   -3.6017 C   0  0  0  1  0  3  0  0  0  0  0  0
   -1.1217    2.8791    1.6943 C   0  0  0  1  0  3  0  0  0  0  0  0
   -1.3599    0.5299    2.1089 C   0  0  0  1  0  3  0  0  0  0  0  0
   -2.0514    0.8079    3.2783 C   0  0  0  1  0  3  0  0  0  0  0  0
   -1.8130    3.1573    2.8643 C   0  0  0  1  0  3  0  0  0  0  0  0
   -2.2753    2.1240    3.6555 C   0  0  0  1  0  3  0  0  0  0  0  0
   -0.9379    5.2267    1.3614 C   0  0  0  1  0  4  0  0  0  0  0  0
   -3.2143    0.1499    5.2456 C   0  0  0  1  0  4  0  0  0  0  0  0
   -2.7374    3.0146   -3.0707 H   0  0  0  1  0  1  0  0  0  0  0  0
    0.6402    3.1501   -2.4739 H   0  0  0  1  0  1  0  0  0  0  0  0
    1.1645    2.2155   -3.9138 H   0  0  0  1  0  1  0  0  0  0  0  0
    0.8449    5.2204   -3.5927 H   0  0  0  1  0  1  0  0  0  0  0  0
    2.0281    4.3088   -4.5873 H   0  0  0  1  0  1  0  0  0  0  0  0
   -1.9311    3.5082   -0.8232 H   0  0  0  1  0  1  0  0  0  0  0  0
   -0.2745    3.7488   -1.4281 H   0  0  0  1  0  1  0  0  0  0  0  0
   -2.8179    2.7402   -6.0038 H   0  0  0  1  0  1  0  0  0  0  0  0
    0.9064    5.8748   -6.7657 H   0  0  0  1  0  1  0  0  0  0  0  0
   -1.3097    1.1325   -2.0661 H   0  0  0  1  0  1  0  0  0  0  0  0
   -2.7344    4.0741   -8.0639 H   0  0  0  1  0  1  0  0  0  0  0  0
   -3.9809    5.3118   -2.8229 H   0  0  0  1  0  1  0  0  0  0  0  0
   -0.8790    5.6453   -8.4480 H   0  0  0  1  0  1  0  0  0  0  0  0
   -3.3179    7.8775   -3.3458 H   0  0  0  1  0  1  0  0  0  0  0  0
   -0.7467    7.9185   -3.8493 H   0  0  0  1  0  1  0  0  0  0  0  0
   -1.1861   -0.4947    1.8149 H   0  0  0  1  0  1  0  0  0  0  0  0
   -1.9903    4.1818    3.1562 H   0  0  0  1  0  1  0  0  0  0  0  0
   -2.8142    2.3405    4.5661 H   0  0  0  1  0  1  0  0  0  0  0  0
   -2.0155    5.3730    1.4351 H   0  0  0  1  0  1  0  0  0  0  0  0
   -0.4825    5.3812    2.3396 H   0  0  0  1  0  1  0  0  0  0  0  0
   -0.5221    5.9404    0.6502 H   0  0  0  1  0  1  0  0  0  0  0  0
   -3.5246   -0.7533    5.7709 H   0  0  0  1  0  1  0  0  0  0  0  0
   -2.5615    0.7389    5.8899 H   0  0  0  1  0  1  0  0  0  0  0  0
   -4.0937    0.7384    4.9840 H   0  0  0  1  0  1  0  0  0  0  0  0
  1  3  2  0  0  0  0
  1  4  2  0  0  0  0
  1  8  1  0  0  0  0
  1 21  1  0  0  0  0
  2 15  1  0  0  0  0
  2 23  1  0  0  0  0
  5 24  1  0  0  0  0
  5 29  1  0  0  0  0
  6 26  1  0  0  0  0
  6 30  1  0  0  0  0
  7  9  1  0  0  0  0
  7 10  1  0  0  0  0
  7 12  1  0  0  0  0
  8 14  1  0  0  0  0
  8 40  1  0  0  0  0
  9 14  1  0  0  0  0
  9 15  1  0  0  0  0
  9 31  1  0  0  0  0
 10 11  1  0  0  0  0
 10 32  1  0  0  0  0
 10 33  1  0  0  0  0
 11 13  1  0  0  0  0
 11 34  1  0  0  0  0
 11 35  1  0  0  0  0
 12 13  1  0  0  0  0
 12 16  2  0  0  0  0
 13 17  2  0  0  0  0
 14 36  1  0  0  0  0
 14 37  1  0  0  0  0
 15 19  2  0  0  0  0
 16 18  1  0  0  0  0
 16 38  1  0  0  0  0
 17 20  1  0  0  0  0
 17 39  1  0  0  0  0
 18 20  2  0  0  0  0
 18 41  1  0  0  0  0
 19 22  1  0  0  0  0
 19 42  1  0  0  0  0
 20 43  1  0  0  0  0
 21 24  2  0  0  0  0
 21 25  1  0  0  0  0
 22 23  2  0  0  0  0
 22 44  1  0  0  0  0
 23 45  1  0  0  0  0
 24 27  1  0  0  0  0
 25 26  2  0  0  0  0
 25 46  1  0  0  0  0
 26 28  1  0  0  0  0
 27 28  2  0  0  0  0
 27 47  1  0  0  0  0
 28 48  1  0  0  0  0
 29 49  1  0  0  0  0
 29 50  1  0  0  0  0
 29 51  1  0  0  0  0
 30 52  1  0  0  0  0
 30 53  1  0  0  0  0
 30 54  1  0  0  0  0
M  END
> <Activity>
2.303

> <Mapped(file=504701.csv.activities,property=Cached(PUBCHEM_COMPOUND_CID))>
2.303

> <PUBCHEM_ATOM_DEF_STEREO_COUNT>
0

> <PUBCHEM_ATOM_UDEF_STEREO_COUNT>
1

> <PUBCHEM_BONDANNOTATIONS>
12  13  8
12  16  8
13  17  8
15  19  8
16  18  8
17  20  8
18  20  8
19  22  8
2  15  8
2  23  8
21  24  8
21  25  8
22  23  8
24  27  8
25  26  8
26  28  8
27  28  8
9  14  3

> <PUBCHEM_BOND_DEF_STEREO_COUNT>
0

> <PUBCHEM_BOND_UDEF_STEREO_COUNT>
0

> <PUBCHEM_CACTVS_COMPLEXITY>
654

> <PUBCHEM_CACTVS_HBOND_ACCEPTOR>
7

> <PUBCHEM_CACTVS_HBOND_DONOR>
1

> <PUBCHEM_CACTVS_ROTATABLE_BOND>
8

> <PUBCHEM_CACTVS_SUBSKEYS>
AAADceB7OABAAAAAAAAAAAAAAAAAAWJAAAAwYAAAAAAAAFgB0AAAHgQQQAAADCzh2AYyx4NABEKIAqxSwHDCCBAlIgAIiJuObMgOZjrEtbuXOSjm0BHY6YfY2YMeAQAABAACIAACAAAIAARAAAAAAAAAAA==

> <PUBCHEM_CACTVS_TAUTO_COUNT>
1

> <PUBCHEM_CACTVS_TPSA>
89.4

> <PUBCHEM_COMPONENT_COUNT>
1

> <PUBCHEM_COMPOUND_CANONICALIZED>
1

> <PUBCHEM_COMPOUND_CID>
16830239

> <PUBCHEM_COORDINATE_TYPE>
1
5
255

> <PUBCHEM_EXACT_MASS>
428.140593

> <PUBCHEM_HEAVY_ATOM_COUNT>
30

> <PUBCHEM_ISOTOPIC_ATOM_COUNT>
0

> <PUBCHEM_IUPAC_CAS_NAME>
N-[2-(2,3-dihydroindol-1-yl)-2-(2-furanyl)ethyl]-2,5-dimethoxybenzenesulfonamide

> <PUBCHEM_IUPAC_INCHI>
InChI=1S/C22H24N2O5S/c1-27-17-9-10-21(28-2)22(14-17)30(25,26)23-15-19(20-8-5-13-29-20)24-12-11-16-6-3-4-7-18(16)24/h3-10,13-14,19,23H,11-12,15H2,1-2H3

> <PUBCHEM_IUPAC_INCHIKEY>
SSTKFZVKVKZALO-UHFFFAOYSA-N

> <PUBCHEM_IUPAC_NAME>
N-[2-(2,3-dihydroindol-1-yl)-2-(furan-2-yl)ethyl]-2,5-dimethoxybenzenesulfonamide

> <PUBCHEM_IUPAC_OPENEYE_NAME>
N-[2-(2-furyl)-2-indolin-1-yl-ethyl]-2,5-dimethoxy-benzenesulfonamide

> <PUBCHEM_IUPAC_SYSTEMATIC_NAME>
N-[2-(2,3-dihydroindol-1-yl)-2-(furan-2-yl)ethyl]-2,5-dimethoxy-benzenesulfonamide

> <PUBCHEM_IUPAC_TRADITIONAL_NAME>
N-[2-(2-furyl)-2-indolin-1-yl-ethyl]-2,5-dimethoxy-benzenesulfonamide

> <PUBCHEM_MOLECULAR_FORMULA>
C22H24N2O5S

> <PUBCHEM_MOLECULAR_WEIGHT>
428.50136

> <PUBCHEM_MONOISOTOPIC_WEIGHT>
428.140593

> <PUBCHEM_OPENEYE_CAN_SMILES>
COC1=CC(=C(C=C1)OC)S(=O)(=O)NCC(C2=CC=CO2)N3CCC4=CC=CC=C43

> <PUBCHEM_OPENEYE_ISO_SMILES>
COC1=CC(=C(C=C1)OC)S(=O)(=O)NCC(C2=CC=CO2)N3CCC4=CC=CC=C43

> <PUBCHEM_TOTAL_CHARGE>
0

> <PUBCHEM_XLOGP3_AA>
3.3

$$$$
Written by BCL::WriteToMDL,2527292
MBcorina  10171218483D 1   1.00000     0.00000 
CORINA 3.49 0026  01.06.2011
 58 61  0  0  0  0  0  0  0  0999 V2000
   -0.8895    2.1557    0.8390 S   0  0  0  1  0  2  0  0  0  0  0  0
    2.1986    6.4824    1.2483 S   0  0  0  1  0  2  0  0  0  0  0  0
   -3.6672   -1.3005   -1.7422 O   0  0  0  1  0  1  0  0  0  0  0  0
   -6.2374   -4.5429   -0.1390 O   0  0  0  1  0  1  0  0  0  0  0  0
   -2.8130    0.1308    0.7301 O   0  0  0  1  0  1  0  0  0  0  0  0
   -4.3132   -4.1752    0.8891 N   0  0  0  1  0  3  0  0  0  0  0  0
   -1.7056   -1.6991    0.1342 N   0  0  0  1  0  3  0  0  0  0  0  0
   -4.9880   -2.9180   -0.9704 N   0  0  0  1  0  3  0  0  0  0  0  0
   -2.2302   -3.7391    1.9681 N   0  0  0  1  0  3  0  0  0  0  0  0
    1.7593    2.1414    0.3728 N   0  0  0  1  0  2  0  0  0  0  0  0
    3.1941    3.9402    0.5169 N   0  0  0  1  0  2  0  0  0  0  0  0
   -2.8963   -2.4530    0.0671 C   0  0  0  1  0  3  0  0  0  0  0  0
   -3.1431   -3.4579    0.9800 C   0  0  0  1  0  3  0  0  0  0  0  0
   -4.5884   -5.2446    1.8519 C   0  0  0  1  0  4  0  0  0  0  0  0
   -0.4149   -2.3442   -0.1196 C   0  0  0  1  0  4  0  0  0  0  0  0
   -3.8579   -2.1857   -0.9254 C   0  0  0  1  0  3  0  0  0  0  0  0
   -5.2091   -3.8970   -0.0753 C   0  0  0  1  0  3  0  0  0  0  0  0
   -5.3229   -4.6755    3.0384 C   0  0  0  1  0  3  0  0  0  0  0  0
   -1.7555   -0.3840    0.4320 C   0  0  0  1  0  3  0  0  0  0  0  0
   -0.4979    0.4454    0.3945 C   0  0  0  1  0  4  0  0  0  0  0  0
   -0.0226   -2.1412   -1.5845 C   0  0  0  1  0  4  0  0  0  0  0  0
    0.9041    4.2586    0.9873 C   0  0  0  1  0  3  0  0  0  0  0  0
   -6.7046   -4.6334    3.0408 C   0  0  0  1  0  3  0  0  0  0  0  0
   -4.6150   -4.2007    4.1267 C   0  0  0  1  0  3  0  0  0  0  0  0
    0.4713    6.4824    1.5504 C   0  0  0  1  0  3  0  0  0  0  0  0
    0.7130    2.8781    0.7177 C   0  0  0  1  0  3  0  0  0  0  0  0
   -0.0470    5.2817    1.3779 C   0  0  0  1  0  3  0  0  0  0  0  0
    2.2007    4.7657    0.8716 C   0  0  0  1  0  3  0  0  0  0  0  0
   -0.3202    7.6990    1.9560 C   0  0  0  1  0  4  0  0  0  0  0  0
   -7.3783   -4.1114    4.1291 C   0  0  0  1  0  3  0  0  0  0  0  0
   -5.2887   -3.6787    5.2151 C   0  0  0  1  0  3  0  0  0  0  0  0
   -6.6703   -3.6318    5.2153 C   0  0  0  1  0  3  0  0  0  0  0  0
   -0.3446    7.8061    3.4821 C   0  0  0  1  0  4  0  0  0  0  0  0
    2.9663    2.6696    0.2783 C   0  0  0  1  0  3  0  0  0  0  0  0
   -5.2019   -6.0110    1.3783 H   0  0  0  1  0  1  0  0  0  0  0  0
   -3.6484   -5.6854    2.1838 H   0  0  0  1  0  1  0  0  0  0  0  0
    0.3451   -1.9022    0.5247 H   0  0  0  1  0  1  0  0  0  0  0  0
   -0.4942   -3.4107    0.0908 H   0  0  0  1  0  1  0  0  0  0  0  0
   -5.6514   -2.7344   -1.6538 H   0  0  0  1  0  1  0  0  0  0  0  0
   -0.0749    0.4188   -0.6097 H   0  0  0  1  0  1  0  0  0  0  0  0
    0.2247    0.0420    1.1039 H   0  0  0  1  0  1  0  0  0  0  0  0
    0.9377   -2.6211   -1.7733 H   0  0  0  1  0  1  0  0  0  0  0  0
   -0.7826   -2.5831   -2.2288 H   0  0  0  1  0  1  0  0  0  0  0  0
    0.0567   -1.0746   -1.7949 H   0  0  0  1  0  1  0  0  0  0  0  0
   -2.4278   -4.4181    2.6320 H   0  0  0  1  0  1  0  0  0  0  0  0
   -1.3883   -3.2585    2.0016 H   0  0  0  1  0  1  0  0  0  0  0  0
   -7.2577   -5.0081    2.1922 H   0  0  0  1  0  1  0  0  0  0  0  0
   -3.5357   -4.2379    4.1269 H   0  0  0  1  0  1  0  0  0  0  0  0
   -1.0982    5.0764    1.5164 H   0  0  0  1  0  1  0  0  0  0  0  0
    0.1446    8.5913    1.5365 H   0  0  0  1  0  1  0  0  0  0  0  0
   -1.3400    7.6104    1.5816 H   0  0  0  1  0  1  0  0  0  0  0  0
   -8.4578   -4.0779    4.1307 H   0  0  0  1  0  1  0  0  0  0  0  0
   -4.7358   -3.3081    6.0655 H   0  0  0  1  0  1  0  0  0  0  0  0
   -7.1967   -3.2236    6.0654 H   0  0  0  1  0  1  0  0  0  0  0  0
   -0.9170    8.6861    3.7754 H   0  0  0  1  0  1  0  0  0  0  0  0
   -0.8094    6.9139    3.9015 H   0  0  0  1  0  1  0  0  0  0  0  0
    0.6753    7.8947    3.8564 H   0  0  0  1  0  1  0  0  0  0  0  0
    3.7930    2.0352   -0.0054 H   0  0  0  1  0  1  0  0  0  0  0  0
  1 20  1  0  0  0  0
  1 26  1  0  0  0  0
  2 25  1  0  0  0  0
  2 28  1  0  0  0  0
  3 16  2  0  0  0  0
  4 17  2  0  0  0  0
  5 19  2  0  0  0  0
  6 13  1  0  0  0  0
  6 14  1  0  0  0  0
  6 17  1  0  0  0  0
  7 12  1  0  0  0  0
  7 15  1  0  0  0  0
  7 19  1  0  0  0  0
  8 16  1  0  0  0  0
  8 17  1  0  0  0  0
  8 39  1  0  0  0  0
  9 13  1  0  0  0  0
  9 45  1  0  0  0  0
  9 46  1  0  0  0  0
 10 26  2  0  0  0  0
 10 34  1  0  0  0  0
 11 28  1  0  0  0  0
 11 34  2  0  0  0  0
 12 13  2  0  0  0  0
 12 16  1  0  0  0  0
 14 18  1  0  0  0  0
 14 35  1  0  0  0  0
 14 36  1  0  0  0  0
 15 21  1  0  0  0  0
 15 37  1  0  0  0  0
 15 38  1  0  0  0  0
 18 23  2  0  0  0  0
 18 24  1  0  0  0  0
 19 20  1  0  0  0  0
 20 40  1  0  0  0  0
 20 41  1  0  0  0  0
 21 42  1  0  0  0  0
 21 43  1  0  0  0  0
 21 44  1  0  0  0  0
 22 26  1  0  0  0  0
 22 27  1  0  0  0  0
 22 28  2  0  0  0  0
 23 30  1  0  0  0  0
 23 47  1  0  0  0  0
 24 31  2  0  0  0  0
 24 48  1  0  0  0  0
 25 27  2  0  0  0  0
 25 29  1  0  0  0  0
 27 49  1  0  0  0  0
 29 33  1  0  0  0  0
 29 50  1  0  0  0  0
 29 51  1  0  0  0  0
 30 32  2  0  0  0  0
 30 52  1  0  0  0  0
 31 32  1  0  0  0  0
 31 53  1  0  0  0  0
 32 54  1  0  0  0  0
 33 55  1  0  0  0  0
 33 56  1  0  0  0  0
 33 57  1  0  0  0  0
 34 58  1  0  0  0  0
M  END
> <Activity>
0.34022

> <Mapped(file=504701.csv.activities,property=Cached(PUBCHEM_COMPOUND_CID))>
0.34022

> <PUBCHEM_ATOM_DEF_STEREO_COUNT>
0

> <PUBCHEM_ATOM_UDEF_STEREO_COUNT>
0

> <PUBCHEM_BONDANNOTATIONS>
10  26  8
10  34  8
11  28  8
11  34  8
12  13  8
12  16  8
18  23  8
18  24  8
2  25  8
2  28  8
22  26  8
22  27  8
22  28  8
23  30  8
24  31  8
25  27  8
30  32  8
31  32  8
6  13  8
6  17  8
8  16  8
8  17  8

> <PUBCHEM_BOND_DEF_STEREO_COUNT>
0

> <PUBCHEM_BOND_UDEF_STEREO_COUNT>
0

> <PUBCHEM_CACTVS_COMPLEXITY>
819

> <PUBCHEM_CACTVS_HBOND_ACCEPTOR>
6

> <PUBCHEM_CACTVS_HBOND_DONOR>
2

> <PUBCHEM_CACTVS_ROTATABLE_BOND>
8

> <PUBCHEM_CACTVS_SUBSKEYS>
AAADceB7sABgAAAAAAAAAAAAAAAAASAAAAA8QIAAAAAAAFgB/AAAHgQQAAAADAjF2gS3kdfIEAisAiVzdACD0KlxCLhJ2DioRNiIaKLg2fGUJAxohyLoyGcQgAAOAAAAAAAAAAAAAAAAAAAAAAAAAAAAAA==

> <PUBCHEM_CACTVS_TAUTO_COUNT>
8

> <PUBCHEM_CACTVS_TPSA>
175

> <PUBCHEM_COMPONENT_COUNT>
1

> <PUBCHEM_COMPOUND_CANONICALIZED>
1

> <PUBCHEM_COMPOUND_CID>
2527292

> <PUBCHEM_COORDINATE_TYPE>
1
5
255

> <PUBCHEM_EXACT_MASS>
496.135131

> <PUBCHEM_HEAVY_ATOM_COUNT>
34

> <PUBCHEM_ISOTOPIC_ATOM_COUNT>
0

> <PUBCHEM_IUPAC_CAS_NAME>
N-[6-amino-2,4-dioxo-1-(phenylmethyl)-5-pyrimidinyl]-N-ethyl-2-[(6-ethyl-4-thieno[2,3-d]pyrimidinyl)thio]acetamide

> <PUBCHEM_IUPAC_INCHI>
InChI=1S/C23H24N6O3S2/c1-3-15-10-16-21(25-13-26-22(16)34-15)33-12-17(30)28(4-2)18-19(24)29(23(32)27-20(18)31)11-14-8-6-5-7-9-14/h5-10,13H,3-4,11-12,24H2,1-2H3,(H,27,31,32)

> <PUBCHEM_IUPAC_INCHIKEY>
IKLCUSCNODDJJL-UHFFFAOYSA-N

> <PUBCHEM_IUPAC_NAME>
N-(6-amino-1-benzyl-2,4-dioxopyrimidin-5-yl)-N-ethyl-2-(6-ethylthieno[2,3-d]pyrimidin-4-yl)sulfanylacetamide

> <PUBCHEM_IUPAC_OPENEYE_NAME>
N-(6-amino-1-benzyl-2,4-dioxo-pyrimidin-5-yl)-N-ethyl-2-(6-ethylthieno[2,3-d]pyrimidin-4-yl)sulfanyl-acetamide

> <PUBCHEM_IUPAC_SYSTEMATIC_NAME>
N-[6-azanyl-2,4-bis(oxidanylidene)-1-(phenylmethyl)pyrimidin-5-yl]-N-ethyl-2-(6-ethylthieno[2,3-d]pyrimidin-4-yl)sulfanyl-ethanamide

> <PUBCHEM_IUPAC_TRADITIONAL_NAME>
N-(6-amino-1-benzyl-2,4-diketo-pyrimidin-5-yl)-N-ethyl-2-[(6-ethylthieno[2,3-d]pyrimidin-4-yl)thio]acetamide

> <PUBCHEM_MOLECULAR_FORMULA>
C23H24N6O3S2

> <PUBCHEM_MOLECULAR_WEIGHT>
496.60506

> <PUBCHEM_MONOISOTOPIC_WEIGHT>
496.135131

> <PUBCHEM_OPENEYE_CAN_SMILES>
CCC1=CC2=C(S1)N=CN=C2SCC(=O)N(CC)C3=C(N(C(=O)NC3=O)CC4=CC=CC=C4)N

> <PUBCHEM_OPENEYE_ISO_SMILES>
CCC1=CC2=C(S1)N=CN=C2SCC(=O)N(CC)C3=C(N(C(=O)NC3=O)CC4=CC=CC=C4)N

> <PUBCHEM_TOTAL_CHARGE>
0

> <PUBCHEM_XLOGP3_AA>
3.2

$$$$
Written by BCL::WriteToMDL,1717232
MBcorina  10171218483D 1   1.00000     0.00000 
CORINA 3.49 0026  01.06.2011
 46 49  0  0  0  0  0  0  0  0999 V2000
   -1.2785   -5.4656   -1.4496 O   0  0  0  1  0  1  0  0  0  0  0  0
    3.3326   -3.4821   -1.8154 O   0  0  0  1  0  2  0  0  0  0  0  0
   -6.6354   -7.7965   -0.2523 N   0  0  0  1  0  3  0  0  0  0  0  0
   -2.4047   -4.2181    0.0023 N   0  0  0  1  0  3  0  0  0  0  0  0
   -5.7302   -6.7508   -0.1710 C   0  0  0  1  0  3  0  0  0  0  0  0
   -4.4344   -7.2814   -0.2499 C   0  0  0  1  0  3  0  0  0  0  0  0
   -5.9663   -9.0002   -0.3826 C   0  0  0  1  0  3  0  0  0  0  0  0
   -4.5873   -8.7417   -0.3872 C   0  0  0  1  0  3  0  0  0  0  0  0
   -8.0920   -7.6491   -0.2012 C   0  0  0  1  0  4  0  0  0  0  0  0
   -3.3283   -6.4369   -0.1923 C   0  0  0  1  0  3  0  0  0  0  0  0
   -5.8988   -5.3759   -0.0347 C   0  0  0  1  0  3  0  0  0  0  0  0
   -6.4134  -10.3126   -0.4994 C   0  0  0  1  0  3  0  0  0  0  0  0
   -3.6810   -9.7919   -0.5082 C   0  0  0  1  0  3  0  0  0  0  0  0
   -3.5135   -5.0719   -0.0566 C   0  0  0  1  0  3  0  0  0  0  0  0
   -4.8005   -4.5466    0.0210 C   0  0  0  1  0  3  0  0  0  0  0  0
   -8.6350   -7.4552   -1.6184 C   0  0  0  1  0  4  0  0  0  0  0  0
   -5.5054  -11.3429   -0.6189 C   0  0  0  1  0  3  0  0  0  0  0  0
   -4.1433  -11.0855   -0.6233 C   0  0  0  1  0  3  0  0  0  0  0  0
   -1.2896   -4.5125   -0.6951 C   0  0  0  1  0  3  0  0  0  0  0  0
   -0.0801   -3.6764   -0.5426 C   0  0  0  1  0  3  0  0  0  0  0  0
    1.0754   -3.9788   -1.2633 C   0  0  0  1  0  3  0  0  0  0  0  0
   -0.0919   -2.5777    0.3189 C   0  0  0  1  0  3  0  0  0  0  0  0
    2.2047   -3.1910   -1.1152 C   0  0  0  1  0  3  0  0  0  0  0  0
    1.0389   -1.7999    0.4592 C   0  0  0  1  0  3  0  0  0  0  0  0
    2.1854   -2.1044   -0.2515 C   0  0  0  1  0  3  0  0  0  0  0  0
    4.4600   -2.6275   -1.6139 C   0  0  0  1  0  4  0  0  0  0  0  0
   -8.5326   -8.5445    0.2374 H   0  0  0  1  0  1  0  0  0  0  0  0
   -8.3484   -6.7823    0.4079 H   0  0  0  1  0  1  0  0  0  0  0  0
   -2.3304   -6.8454   -0.2529 H   0  0  0  1  0  1  0  0  0  0  0  0
   -6.8929   -4.9584    0.0268 H   0  0  0  1  0  1  0  0  0  0  0  0
   -7.4724  -10.5242   -0.4971 H   0  0  0  1  0  1  0  0  0  0  0  0
   -2.6193   -9.5937   -0.5123 H   0  0  0  1  0  1  0  0  0  0  0  0
   -4.9388   -3.4807    0.1264 H   0  0  0  1  0  1  0  0  0  0  0  0
   -8.3787   -8.3220   -2.2275 H   0  0  0  1  0  1  0  0  0  0  0  0
   -9.7188   -7.3456   -1.5804 H   0  0  0  1  0  1  0  0  0  0  0  0
   -8.1945   -6.5599   -2.0569 H   0  0  0  1  0  1  0  0  0  0  0  0
   -5.8582  -12.3597   -0.7086 H   0  0  0  1  0  1  0  0  0  0  0  0
   -3.4419  -11.9013   -0.7176 H   0  0  0  1  0  1  0  0  0  0  0  0
   -2.4394   -3.4149    0.5451 H   0  0  0  1  0  1  0  0  0  0  0  0
    1.0894   -4.8249   -1.9343 H   0  0  0  1  0  1  0  0  0  0  0  0
   -0.9857   -2.3370    0.8752 H   0  0  0  1  0  1  0  0  0  0  0  0
    1.0284   -0.9501    1.1256 H   0  0  0  1  0  1  0  0  0  0  0  0
    3.0677   -1.4921   -0.1374 H   0  0  0  1  0  1  0  0  0  0  0  0
    4.1971   -1.6072   -1.8932 H   0  0  0  1  0  1  0  0  0  0  0  0
    4.7523   -2.6530   -0.5641 H   0  0  0  1  0  1  0  0  0  0  0  0
    5.2907   -2.9704   -2.2307 H   0  0  0  1  0  1  0  0  0  0  0  0
  1 19  2  0  0  0  0
  2 23  1  0  0  0  0
  2 26  1  0  0  0  0
  3  5  1  0  0  0  0
  3  7  1  0  0  0  0
  3  9  1  0  0  0  0
  4 14  1  0  0  0  0
  4 19  1  0  0  0  0
  4 39  1  0  0  0  0
  5  6  2  0  0  0  0
  5 11  1  0  0  0  0
  6  8  1  0  0  0  0
  6 10  1  0  0  0  0
  7  8  1  0  0  0  0
  7 12  2  0  0  0  0
  8 13  2  0  0  0  0
  9 16  1  0  0  0  0
  9 27  1  0  0  0  0
  9 28  1  0  0  0  0
 10 14  2  0  0  0  0
 10 29  1  0  0  0  0
 11 15  2  0  0  0  0
 11 30  1  0  0  0  0
 12 17  1  0  0  0  0
 12 31  1  0  0  0  0
 13 18  1  0  0  0  0
 13 32  1  0  0  0  0
 14 15  1  0  0  0  0
 15 33  1  0  0  0  0
 16 34  1  0  0  0  0
 16 35  1  0  0  0  0
 16 36  1  0  0  0  0
 17 18  2  0  0  0  0
 17 37  1  0  0  0  0
 18 38  1  0  0  0  0
 19 20  1  0  0  0  0
 20 21  2  0  0  0  0
 20 22  1  0  0  0  0
 21 23  1  0  0  0  0
 21 40  1  0  0  0  0
 22 24  2  0  0  0  0
 22 41  1  0  0  0  0
 23 25  2  0  0  0  0
 24 25  1  0  0  0  0
 24 42  1  0  0  0  0
 25 43  1  0  0  0  0
 26 44  1  0  0  0  0
 26 45  1  0  0  0  0
 26 46  1  0  0  0  0
M  END
> <Activity>
0.19952

> <Mapped(file=504701.csv.activities,property=Cached(PUBCHEM_COMPOUND_CID))>
0.19952

> <PUBCHEM_ATOM_DEF_STEREO_COUNT>
0

> <PUBCHEM_ATOM_UDEF_STEREO_COUNT>
0

> <PUBCHEM_BONDANNOTATIONS>
10  14  8
11  15  8
12  17  8
13  18  8
14  15  8
17  18  8
20  21  8
20  22  8
21  23  8
22  24  8
23  25  8
24  25  8
3  5  8
3  7  8
5  11  8
5  6  8
6  10  8
6  8  8
7  12  8
7  8  8
8  13  8

> <PUBCHEM_BOND_DEF_STEREO_COUNT>
0

> <PUBCHEM_BOND_UDEF_STEREO_COUNT>
0

> <PUBCHEM_CACTVS_COMPLEXITY>
497

> <PUBCHEM_CACTVS_HBOND_ACCEPTOR>
2

> <PUBCHEM_CACTVS_HBOND_DONOR>
1

> <PUBCHEM_CACTVS_ROTATABLE_BOND>
4

> <PUBCHEM_CACTVS_SUBSKEYS>
AAADceB7MAAAAAAAAAAAAAAAAAAAAWAAAAAwYMAAAAAAAFgB/AAAHgAQAAAADAzBngYyxvPMFACoAyVyVACCiCAlIiAI2CE+bNgMJvLEtZuEMShk1BHI6Ye6yNCOgACBQAACAAAAAQKAAAQAAAAAAAAAAA==

> <PUBCHEM_CACTVS_TAUTO_COUNT>
2

> <PUBCHEM_CACTVS_TPSA>
43.3

> <PUBCHEM_COMPONENT_COUNT>
1

> <PUBCHEM_COMPOUND_CANONICALIZED>
1

> <PUBCHEM_COMPOUND_CID>
1717232

> <PUBCHEM_COORDINATE_TYPE>
1
5
255

> <PUBCHEM_EXACT_MASS>
344.152478

> <PUBCHEM_HEAVY_ATOM_COUNT>
26

> <PUBCHEM_ISOTOPIC_ATOM_COUNT>
0

> <PUBCHEM_IUPAC_CAS_NAME>
N-(9-ethyl-3-carbazolyl)-3-methoxybenzamide

> <PUBCHEM_IUPAC_INCHI>
InChI=1S/C22H20N2O2/c1-3-24-20-10-5-4-9-18(20)19-14-16(11-12-21(19)24)23-22(25)15-7-6-8-17(13-15)26-2/h4-14H,3H2,1-2H3,(H,23,25)

> <PUBCHEM_IUPAC_INCHIKEY>
ZDOCDDUODADRCW-UHFFFAOYSA-N

> <PUBCHEM_IUPAC_NAME>
N-(9-ethylcarbazol-3-yl)-3-methoxybenzamide

> <PUBCHEM_IUPAC_OPENEYE_NAME>
N-(9-ethylcarbazol-3-yl)-3-methoxy-benzamide

> <PUBCHEM_IUPAC_SYSTEMATIC_NAME>
N-(9-ethylcarbazol-3-yl)-3-methoxy-benzamide

> <PUBCHEM_IUPAC_TRADITIONAL_NAME>
N-(9-ethylcarbazol-3-yl)-3-methoxy-benzamide

> <PUBCHEM_MOLECULAR_FORMULA>
C22H20N2O2

> <PUBCHEM_MOLECULAR_WEIGHT>
344.4064

> <PUBCHEM_MONOISOTOPIC_WEIGHT>
344.152478

> <PUBCHEM_OPENEYE_CAN_SMILES>
CCN1C2=C(C=C(C=C2)NC(=O)C3=CC(=CC=C3)OC)C4=CC=CC=C41

> <PUBCHEM_OPENEYE_ISO_SMILES>
CCN1C2=C(C=C(C=C2)NC(=O)C3=CC(=CC=C3)OC)C4=CC=CC=C41

> <PUBCHEM_TOTAL_CHARGE>
0

> <PUBCHEM_XLOGP3_AA>
4.4

$$$$
Written by BCL::WriteToMDL,686154
MBcorina  10171218483D 1   1.00000     0.00000 
CORINA 3.49 0026  01.06.2011
 30 32  0  0  0  0  0  0  0  0999 V2000
   -0.0694   -5.5747   -0.0278 Br  0  0  0  1  0  1  0  0  0  0  0  0
   -0.0169    1.3953    0.0097 N   0  0  0  1  0  3  0  0  0  0  0  0
    0.0021   -0.0041    0.0020 N   0  0  0  1  0  2  0  0  0  0  0  0
    1.5593    3.1458    0.0034 N   0  0  0  1  0  2  0  0  0  0  0  0
    1.2834    1.8339   -0.0003 C   0  0  0  1  0  3  0  0  0  0  0  0
   -1.0378    2.3016    0.0294 C   0  0  0  1  0  3  0  0  0  0  0  0
    1.2592   -0.4121   -0.0122 C   0  0  0  1  0  3  0  0  0  0  0  0
    2.0933    0.7084   -0.0141 C   0  0  0  1  0  3  0  0  0  0  0  0
    1.7098   -1.8263   -0.0241 C   0  0  0  1  0  3  0  0  0  0  0  0
   -0.7457    3.6251    0.0327 C   0  0  0  1  0  3  0  0  0  0  0  0
    0.5952    4.0356    0.0159 C   0  0  0  1  0  3  0  0  0  0  0  0
   -2.4711    1.8364    0.0466 C   0  0  0  1  0  4  0  0  0  0  0  0
    0.7741   -2.8579   -0.0212 C   0  0  0  1  0  3  0  0  0  0  0  0
    3.0704   -2.1264   -0.0439 C   0  0  0  1  0  3  0  0  0  0  0  0
    0.9302    5.5049    0.0199 C   0  0  0  1  0  4  0  0  0  0  0  0
    1.1990   -4.1723   -0.0323 C   0  0  0  1  0  3  0  0  0  0  0  0
    3.4845   -3.4428   -0.0549 C   0  0  0  1  0  3  0  0  0  0  0  0
    2.5517   -4.4642   -0.0462 C   0  0  0  1  0  3  0  0  0  0  0  0
    3.1732    0.6997   -0.0245 H   0  0  0  1  0  1  0  0  0  0  0  0
   -1.5392    4.3577    0.0477 H   0  0  0  1  0  1  0  0  0  0  0  0
   -2.8023    1.7181    1.0784 H   0  0  0  1  0  1  0  0  0  0  0  0
   -3.0985    2.5737   -0.4541 H   0  0  0  1  0  1  0  0  0  0  0  0
   -2.5492    0.8808   -0.4718 H   0  0  0  1  0  1  0  0  0  0  0  0
   -0.2817   -2.6308   -0.0100 H   0  0  0  1  0  1  0  0  0  0  0  0
    3.7998   -1.3299   -0.0511 H   0  0  0  1  0  1  0  0  0  0  0  0
    2.0128    5.6308    0.0111 H   0  0  0  1  0  1  0  0  0  0  0  0
    0.5023    5.9775   -0.8642 H   0  0  0  1  0  1  0  0  0  0  0  0
    0.5177    5.9692    0.9156 H   0  0  0  1  0  1  0  0  0  0  0  0
    4.5389   -3.6760   -0.0703 H   0  0  0  1  0  1  0  0  0  0  0  0
    2.8801   -5.4930   -0.0548 H   0  0  0  1  0  1  0  0  0  0  0  0
  1 16  1  0  0  0  0
  2  3  1  0  0  0  0
  2  5  1  0  0  0  0
  2  6  1  0  0  0  0
  3  7  2  0  0  0  0
  4  5  1  0  0  0  0
  4 11  2  0  0  0  0
  5  8  2  0  0  0  0
  6 10  2  0  0  0  0
  6 12  1  0  0  0  0
  7  8  1  0  0  0  0
  7  9  1  0  0  0  0
  8 19  1  0  0  0  0
  9 13  2  0  0  0  0
  9 14  1  0  0  0  0
 10 11  1  0  0  0  0
 10 20  1  0  0  0  0
 11 15  1  0  0  0  0
 12 21  1  0  0  0  0
 12 22  1  0  0  0  0
 12 23  1  0  0  0  0
 13 16  1  0  0  0  0
 13 24  1  0  0  0  0
 14 17  2  0  0  0  0
 14 25  1  0  0  0  0
 15 26  1  0  0  0  0
 15 27  1  0  0  0  0
 15 28  1  0  0  0  0
 16 18  2  0  0  0  0
 17 18  1  0  0  0  0
 17 29  1  0  0  0  0
 18 30  1  0  0  0  0
M  END
> <Activity>
2.052

> <Mapped(file=504701.csv.activities,property=Cached(PUBCHEM_COMPOUND_CID))>
2.052

> <PUBCHEM_ATOM_DEF_STEREO_COUNT>
0

> <PUBCHEM_ATOM_UDEF_STEREO_COUNT>
0

> <PUBCHEM_BONDANNOTATIONS>
10  11  8
13  16  8
14  17  8
16  18  8
17  18  8
2  3  8
2  5  8
2  6  8
3  7  8
4  11  8
4  5  8
5  8  8
6  10  8
7  8  8
9  13  8
9  14  8

> <PUBCHEM_BOND_DEF_STEREO_COUNT>
0

> <PUBCHEM_BOND_UDEF_STEREO_COUNT>
0

> <PUBCHEM_CACTVS_COMPLEXITY>
299

> <PUBCHEM_CACTVS_HBOND_ACCEPTOR>
1

> <PUBCHEM_CACTVS_HBOND_DONOR>
0

> <PUBCHEM_CACTVS_ROTATABLE_BOND>
1

> <PUBCHEM_CACTVS_SUBSKEYS>
AAADccBzAAAAEAAAAAAAAAAAAAAAAWAAAAA8QAAAAAAAAFgB8AAAHABIAAABrAiBHwAzsJ4IEACiAyZiZACShCshAqQdmCAwZLiIKOLA2dGEpAhoiALIyjcQgIAOAAAAEAAAAAAAAAAgAAAAAAAAAAAAAA==

> <PUBCHEM_CACTVS_TAUTO_COUNT>
1

> <PUBCHEM_CACTVS_TPSA>
30.2

> <PUBCHEM_COMPONENT_COUNT>
1

> <PUBCHEM_COMPOUND_CANONICALIZED>
1

> <PUBCHEM_COMPOUND_CID>
686154

> <PUBCHEM_COORDINATE_TYPE>
1
5
255

> <PUBCHEM_EXACT_MASS>
301.021459

> <PUBCHEM_HEAVY_ATOM_COUNT>
18

> <PUBCHEM_ISOTOPIC_ATOM_COUNT>
0

> <PUBCHEM_IUPAC_CAS_NAME>
2-(3-bromophenyl)-5,7-dimethylpyrazolo[1,5-a]pyrimidine

> <PUBCHEM_IUPAC_INCHI>
InChI=1S/C14H12BrN3/c1-9-6-10(2)18-14(16-9)8-13(17-18)11-4-3-5-12(15)7-11/h3-8H,1-2H3

> <PUBCHEM_IUPAC_INCHIKEY>
XZYBLTKBGVPSSO-UHFFFAOYSA-N

> <PUBCHEM_IUPAC_NAME>
2-(3-bromophenyl)-5,7-dimethylpyrazolo[1,5-a]pyrimidine

> <PUBCHEM_IUPAC_OPENEYE_NAME>
2-(3-bromophenyl)-5,7-dimethyl-pyrazolo[1,5-a]pyrimidine

> <PUBCHEM_IUPAC_SYSTEMATIC_NAME>
2-(3-bromophenyl)-5,7-dimethyl-pyrazolo[1,5-a]pyrimidine

> <PUBCHEM_IUPAC_TRADITIONAL_NAME>
2-(3-bromophenyl)-5,7-dimethyl-pyrazolo[1,5-a]pyrimidine

> <PUBCHEM_MOLECULAR_FORMULA>
C14H12BrN3

> <PUBCHEM_MOLECULAR_WEIGHT>
302.16918

> <PUBCHEM_MONOISOTOPIC_WEIGHT>
301.021459

> <PUBCHEM_OPENEYE_CAN_SMILES>
CC1=CC(=NC2=CC(=NN12)C3=CC(=CC=C3)Br)C

> <PUBCHEM_OPENEYE_ISO_SMILES>
CC1=CC(=NC2=CC(=NN12)C3=CC(=CC=C3)Br)C

> <PUBCHEM_TOTAL_CHARGE>
0

> <PUBCHEM_XLOGP3_AA>
3.5

$$$$
Written by BCL::WriteToMDL,3244597
MBcorina  10171218483D 1   1.00000     0.00000 
CORINA 3.49 0026  01.06.2011
 47 50  0  0  0  0  0  0  0  0999 V2000
   -0.0169    1.3950    0.0097 N   0  0  0  1  0  3  0  0  0  0  0  0
   -1.2933    3.3295    0.3984 N   0  0  0  1  0  2  0  0  0  0  0  0
   -2.5218    5.3011    0.7850 N   0  0  0  1  0  3  0  0  0  0  0  0
   -2.3486    1.2870    0.2735 N   0  0  0  1  0  2  0  0  0  0  0  0
   -3.5749    3.1985    0.6530 N   0  0  0  1  0  2  0  0  0  0  0  0
   -4.6758    1.1292    0.5303 N   0  0  0  1  0  3  0  0  0  0  0  0
   -1.9231    7.3718    0.9710 N   0  0  0  1  0  2  0  0  0  0  0  0
    0.0389    0.0143   -0.2104 C   0  0  0  1  0  3  0  0  0  0  0  0
    1.1592    2.1530    0.0011 C   0  0  0  1  0  3  0  0  0  0  0  0
   -1.2355    2.0115    0.2302 C   0  0  0  1  0  3  0  0  0  0  0  0
   -0.2694   -0.8674    0.8176 C   0  0  0  1  0  3  0  0  0  0  0  0
    2.0994    1.9905    1.0105 C   0  0  0  1  0  3  0  0  0  0  0  0
    0.3973   -0.4775   -1.4589 C   0  0  0  1  0  3  0  0  0  0  0  0
    1.3917    3.0654   -1.0200 C   0  0  0  1  0  3  0  0  0  0  0  0
   -2.4623    3.9213    0.6095 C   0  0  0  1  0  3  0  0  0  0  0  0
   -3.5190    1.8805    0.4850 C   0  0  0  1  0  3  0  0  0  0  0  0
    3.2592    2.7402    0.9990 C   0  0  0  1  0  3  0  0  0  0  0  0
   -0.2132   -2.2295    0.5971 C   0  0  0  1  0  3  0  0  0  0  0  0
    2.5535    3.8120   -1.0255 C   0  0  0  1  0  3  0  0  0  0  0  0
    0.4515   -1.8408   -1.6728 C   0  0  0  1  0  3  0  0  0  0  0  0
    3.4847    3.6522   -0.0157 C   0  0  0  1  0  3  0  0  0  0  0  0
    0.1499   -2.7160   -0.6455 C   0  0  0  1  0  3  0  0  0  0  0  0
   -5.9656    1.7836    0.7634 C   0  0  0  1  0  4  0  0  0  0  0  0
   -3.6517    6.0479    1.0104 C   0  0  0  1  0  3  0  0  0  0  0  0
   -1.4706    6.1649    0.7717 C   0  0  0  1  0  3  0  0  0  0  0  0
   -3.2560    7.3292    1.1203 C   0  0  0  1  0  3  0  0  0  0  0  0
   -7.0608    0.7485    0.7666 C   0  0  0  1  0  3  0  0  0  0  0  0
   -7.8686    0.6527    1.7934 C   0  0  0  1  0  3  0  0  0  0  0  0
   -0.5524   -0.4881    1.7884 H   0  0  0  1  0  1  0  0  0  0  0  0
    1.9235    1.2788    1.8036 H   0  0  0  1  0  1  0  0  0  0  0  0
    0.6330    0.2055   -2.2617 H   0  0  0  1  0  1  0  0  0  0  0  0
    0.6648    3.1907   -1.8089 H   0  0  0  1  0  1  0  0  0  0  0  0
    3.9906    2.6143    1.7836 H   0  0  0  1  0  1  0  0  0  0  0  0
   -0.4528   -2.9156    1.3960 H   0  0  0  1  0  1  0  0  0  0  0  0
    0.7301   -2.2238   -2.6434 H   0  0  0  1  0  1  0  0  0  0  0  0
    2.7349    4.5217   -1.8192 H   0  0  0  1  0  1  0  0  0  0  0  0
    4.3922    4.2378   -0.0220 H   0  0  0  1  0  1  0  0  0  0  0  0
    0.1937   -3.7816   -0.8151 H   0  0  0  1  0  1  0  0  0  0  0  0
   -4.6348    0.1679    0.4077 H   0  0  0  1  0  1  0  0  0  0  0  0
   -5.9453    2.2940    1.7263 H   0  0  0  1  0  1  0  0  0  0  0  0
   -6.1534    2.5089   -0.0284 H   0  0  0  1  0  1  0  0  0  0  0  0
   -4.6636    5.6779    1.0848 H   0  0  0  1  0  1  0  0  0  0  0  0
   -0.4353    5.8963    0.6216 H   0  0  0  1  0  1  0  0  0  0  0  0
   -3.9003    8.1775    1.2985 H   0  0  0  1  0  1  0  0  0  0  0  0
   -7.1797    0.0855   -0.0777 H   0  0  0  1  0  1  0  0  0  0  0  0
   -7.7497    1.3157    2.6376 H   0  0  0  1  0  1  0  0  0  0  0  0
   -8.6535   -0.0891    1.7957 H   0  0  0  1  0  1  0  0  0  0  0  0
  1  8  1  0  0  0  0
  1  9  1  0  0  0  0
  1 10  1  0  0  0  0
  2 10  1  0  0  0  0
  2 15  2  0  0  0  0
  3 15  1  0  0  0  0
  3 24  1  0  0  0  0
  3 25  1  0  0  0  0
  4 10  2  0  0  0  0
  4 16  1  0  0  0  0
  5 15  1  0  0  0  0
  5 16  2  0  0  0  0
  6 16  1  0  0  0  0
  6 23  1  0  0  0  0
  6 39  1  0  0  0  0
  7 25  2  0  0  0  0
  7 26  1  0  0  0  0
  8 11  2  0  0  0  0
  8 13  1  0  0  0  0
  9 12  2  0  0  0  0
  9 14  1  0  0  0  0
 11 18  1  0  0  0  0
 11 29  1  0  0  0  0
 12 17  1  0  0  0  0
 12 30  1  0  0  0  0
 13 20  2  0  0  0  0
 13 31  1  0  0  0  0
 14 19  2  0  0  0  0
 14 32  1  0  0  0  0
 17 21  2  0  0  0  0
 17 33  1  0  0  0  0
 18 22  2  0  0  0  0
 18 34  1  0  0  0  0
 19 21  1  0  0  0  0
 19 36  1  0  0  0  0
 20 22  1  0  0  0  0
 20 35  1  0  0  0  0
 21 37  1  0  0  0  0
 22 38  1  0  0  0  0
 23 27  1  0  0  0  0
 23 40  1  0  0  0  0
 23 41  1  0  0  0  0
 24 26  2  0  0  0  0
 24 42  1  0  0  0  0
 25 43  1  0  0  0  0
 26 44  1  0  0  0  0
 27 28  2  0  0  0  0
 27 45  1  0  0  0  0
 28 46  1  0  0  0  0
 28 47  1  0  0  0  0
M  END
> <Activity>
6.466

> <Mapped(file=504701.csv.activities,property=Cached(PUBCHEM_COMPOUND_CID))>
6.466

> <PUBCHEM_ATOM_DEF_STEREO_COUNT>
0

> <PUBCHEM_ATOM_UDEF_STEREO_COUNT>
0

> <PUBCHEM_BONDANNOTATIONS>
11  18  8
12  17  8
13  20  8
14  19  8
17  21  8
18  22  8
19  21  8
2  10  8
2  15  8
20  22  8
24  26  8
3  24  8
3  25  8
4  10  8
4  16  8
5  15  8
5  16  8
7  25  8
7  26  8
8  11  8
8  13  8
9  12  8
9  14  8

> <PUBCHEM_BOND_DEF_STEREO_COUNT>
0

> <PUBCHEM_BOND_UDEF_STEREO_COUNT>
0

> <PUBCHEM_CACTVS_COMPLEXITY>
457

> <PUBCHEM_CACTVS_HBOND_ACCEPTOR>
0

> <PUBCHEM_CACTVS_HBOND_DONOR>
1

> <PUBCHEM_CACTVS_ROTATABLE_BOND>
7

> <PUBCHEM_CACTVS_SUBSKEYS>
AAADceB7gAAAAAAAAAAAAAAAAAAAAWAAAAA8YIAAAAAAAAAB9AAAHAAQAAAACAjBEgQ90JfMEACgADRnZACCgC0xEqAJyIAYdIiIaGLAmZGUIAhokALIyCcQAAAAAAAAAAAAAAAAAAAAAAAAAAAAAAAAAA==

> <PUBCHEM_CACTVS_TAUTO_COUNT>
4

> <PUBCHEM_CACTVS_TPSA>
71.8

> <PUBCHEM_COMPONENT_COUNT>
1

> <PUBCHEM_COMPOUND_CANONICALIZED>
1

> <PUBCHEM_COMPOUND_CID>
3244597

> <PUBCHEM_COORDINATE_TYPE>
1
5
255

> <PUBCHEM_EXACT_MASS>
369.170194

> <PUBCHEM_HEAVY_ATOM_COUNT>
28

> <PUBCHEM_ISOTOPIC_ATOM_COUNT>
0

> <PUBCHEM_IUPAC_CAS_NAME>
6-(1-imidazolyl)-N4,N4-diphenyl-N2-prop-2-enyl-1,3,5-triazine-2,4-diamine

> <PUBCHEM_IUPAC_INCHI>
InChI=1S/C21H19N7/c1-2-13-23-19-24-20(27-15-14-22-16-27)26-21(25-19)28(17-9-5-3-6-10-17)18-11-7-4-8-12-18/h2-12,14-16H,1,13H2,(H,23,24,25,26)

> <PUBCHEM_IUPAC_INCHIKEY>
XNMNTOFNEHOCDS-UHFFFAOYSA-N

> <PUBCHEM_IUPAC_NAME>
6-imidazol-1-yl-4-N,4-N-diphenyl-2-N-prop-2-enyl-1,3,5-triazine-2,4-diamine

> <PUBCHEM_IUPAC_OPENEYE_NAME>
N2-allyl-6-imidazol-1-yl-N4,N4-diphenyl-1,3,5-triazine-2,4-diamine

> <PUBCHEM_IUPAC_SYSTEMATIC_NAME>
6-imidazol-1-yl-N4,N4-diphenyl-N2-prop-2-enyl-1,3,5-triazine-2,4-diamine

> <PUBCHEM_IUPAC_TRADITIONAL_NAME>
[4-(allylamino)-6-imidazol-1-yl-s-triazin-2-yl]-diphenyl-amine

> <PUBCHEM_MOLECULAR_FORMULA>
C21H19N7

> <PUBCHEM_MOLECULAR_WEIGHT>
369.42246

> <PUBCHEM_MONOISOTOPIC_WEIGHT>
369.170194

> <PUBCHEM_OPENEYE_CAN_SMILES>
C=CCNC1=NC(=NC(=N1)N2C=CN=C2)N(C3=CC=CC=C3)C4=CC=CC=C4

> <PUBCHEM_OPENEYE_ISO_SMILES>
C=CCNC1=NC(=NC(=N1)N2C=CN=C2)N(C3=CC=CC=C3)C4=CC=CC=C4

> <PUBCHEM_TOTAL_CHARGE>
0

> <PUBCHEM_XLOGP3_AA>
4.6

$$$$
Written by BCL::WriteToMDL,797253
MBcorina  10171218483D 1   1.00000     0.00000 
CORINA 3.49 0026  01.06.2011
 39 41  0  0  0  0  0  0  0  0999 V2000
   -2.5454   -4.0317    0.4843 S   0  0  0  1  0  1  0  0  0  0  0  0
   -0.0014    1.3945    0.0547 N   0  0  0  1  0  3  0  0  0  0  0  0
    0.0586   -4.1730   -0.0193 N   0  0  0  1  0  3  0  0  0  0  0  0
    0.1242   -6.9635    0.1729 N   0  0  0  1  0  2  0  0  0  0  0  0
    0.0134   -0.0042    0.0359 C   0  0  0  1  0  3  0  0  0  0  0  0
    0.0434   -2.7733   -0.0008 C   0  0  0  1  0  3  0  0  0  0  0  0
   -0.9499   -9.0601    0.5382 C   0  0  0  1  0  3  0  0  0  0  0  0
    0.2088   -8.2917    0.2535 C   0  0  0  1  0  3  0  0  0  0  0  0
    0.6961   -0.6781   -0.9686 C   0  0  0  1  0  3  0  0  0  0  0  0
   -0.6499   -0.7191    1.0250 C   0  0  0  1  0  3  0  0  0  0  0  0
   -1.0238   -6.3378    0.3535 C   0  0  0  1  0  3  0  0  0  0  0  0
    0.7110   -2.0584   -0.9869 C   0  0  0  1  0  3  0  0  0  0  0  0
   -0.6349   -2.0994    1.0067 C   0  0  0  1  0  3  0  0  0  0  0  0
   -2.1795   -8.4016    0.7325 C   0  0  0  1  0  3  0  0  0  0  0  0
   -1.0666   -4.8628    0.2535 C   0  0  0  1  0  3  0  0  0  0  0  0
   -2.2057   -7.0410    0.6381 C   0  0  0  1  0  3  0  0  0  0  0  0
   -0.8513  -10.4578    0.6200 C   0  0  0  1  0  3  0  0  0  0  0  0
    1.4364   -8.9524    0.0592 C   0  0  0  1  0  3  0  0  0  0  0  0
    0.7032    2.1485   -0.9851 C   0  0  0  1  0  4  0  0  0  0  0  0
   -0.7265    2.1052    1.1108 C   0  0  0  1  0  4  0  0  0  0  0  0
    0.3543  -11.0608    0.4260 C   0  0  0  1  0  3  0  0  0  0  0  0
    1.4940  -10.3089    0.1467 C   0  0  0  1  0  3  0  0  0  0  0  0
    1.2149   -0.1222   -1.7356 H   0  0  0  1  0  1  0  0  0  0  0  0
   -1.1770   -0.1952    1.8086 H   0  0  0  1  0  1  0  0  0  0  0  0
    1.2387   -2.5824   -1.7701 H   0  0  0  1  0  1  0  0  0  0  0  0
   -1.1543   -2.6553    1.7732 H   0  0  0  1  0  1  0  0  0  0  0  0
    0.8790   -4.6463   -0.2285 H   0  0  0  1  0  1  0  0  0  0  0  0
   -3.0783   -8.9593    0.9502 H   0  0  0  1  0  1  0  0  0  0  0  0
   -3.1328   -6.5059    0.7821 H   0  0  0  1  0  1  0  0  0  0  0  0
   -1.7268  -11.0520    0.8365 H   0  0  0  1  0  1  0  0  0  0  0  0
    2.3290   -8.3848   -0.1587 H   0  0  0  1  0  1  0  0  0  0  0  0
    0.2905    1.8940   -1.9613 H   0  0  0  1  0  1  0  0  0  0  0  0
    0.5801    3.2166   -0.8059 H   0  0  0  1  0  1  0  0  0  0  0  0
   -0.0588    2.2826    1.9539 H   0  0  0  1  0  1  0  0  0  0  0  0
   -1.0866    3.0592    0.7256 H   0  0  0  1  0  1  0  0  0  0  0  0
   -1.5736    1.5027    1.4387 H   0  0  0  1  0  1  0  0  0  0  0  0
    1.7633    1.8960   -0.9617 H   0  0  0  1  0  1  0  0  0  0  0  0
    0.4282  -12.1363    0.4897 H   0  0  0  1  0  1  0  0  0  0  0  0
    2.4383  -10.8112   -0.0031 H   0  0  0  1  0  1  0  0  0  0  0  0
  1 15  2  0  0  0  0
  2  5  1  0  0  0  0
  2 19  1  0  0  0  0
  2 20  1  0  0  0  0
  3  6  1  0  0  0  0
  3 15  1  0  0  0  0
  3 27  1  0  0  0  0
  4  8  1  0  0  0  0
  4 11  2  0  0  0  0
  5  9  2  0  0  0  0
  5 10  1  0  0  0  0
  6 12  2  0  0  0  0
  6 13  1  0  0  0  0
  7  8  1  0  0  0  0
  7 14  1  0  0  0  0
  7 17  2  0  0  0  0
  8 18  2  0  0  0  0
  9 12  1  0  0  0  0
  9 23  1  0  0  0  0
 10 13  2  0  0  0  0
 10 24  1  0  0  0  0
 11 15  1  0  0  0  0
 11 16  1  0  0  0  0
 12 25  1  0  0  0  0
 13 26  1  0  0  0  0
 14 16  2  0  0  0  0
 14 28  1  0  0  0  0
 16 29  1  0  0  0  0
 17 21  1  0  0  0  0
 17 30  1  0  0  0  0
 18 22  1  0  0  0  0
 18 31  1  0  0  0  0
 19 32  1  0  0  0  0
 19 33  1  0  0  0  0
 19 37  1  0  0  0  0
 20 34  1  0  0  0  0
 20 35  1  0  0  0  0
 20 36  1  0  0  0  0
 21 22  2  0  0  0  0
 21 38  1  0  0  0  0
 22 39  1  0  0  0  0
M  END
> <Activity>
2.863

> <Mapped(file=504701.csv.activities,property=Cached(PUBCHEM_COMPOUND_CID))>
2.863

> <PUBCHEM_ATOM_DEF_STEREO_COUNT>
0

> <PUBCHEM_ATOM_UDEF_STEREO_COUNT>
0

> <PUBCHEM_BONDANNOTATIONS>
10  13  8
11  16  8
14  16  8
17  21  8
18  22  8
21  22  8
4  11  8
4  8  8
5  10  8
5  9  8
6  12  8
6  13  8
7  14  8
7  17  8
7  8  8
8  18  8
9  12  8

> <PUBCHEM_BOND_DEF_STEREO_COUNT>
0

> <PUBCHEM_BOND_UDEF_STEREO_COUNT>
0

> <PUBCHEM_CACTVS_COMPLEXITY>
377

> <PUBCHEM_CACTVS_HBOND_ACCEPTOR>
3

> <PUBCHEM_CACTVS_HBOND_DONOR>
1

> <PUBCHEM_CACTVS_ROTATABLE_BOND>
3

> <PUBCHEM_CACTVS_SUBSKEYS>
AAADceB7AABAAAAAAAAAAAAAAAAAAAAAAAA8YIAAAAAAAACx9AAAHAQQAAAADAiBXgQywPPIEACkAyRiRACCgCAhAikImCA4ZJgIYOLAkZGUIAhgkADIyAcQgIAOAACAAAACAAAAAQAAAAQAAAAAAAAAAA==

> <PUBCHEM_CACTVS_TAUTO_COUNT>
2

> <PUBCHEM_CACTVS_TPSA>
60.2

> <PUBCHEM_COMPONENT_COUNT>
1

> <PUBCHEM_COMPOUND_CANONICALIZED>
1

> <PUBCHEM_COMPOUND_CID>
797253

> <PUBCHEM_COORDINATE_TYPE>
1
5
255

> <PUBCHEM_EXACT_MASS>
307.114319

> <PUBCHEM_HEAVY_ATOM_COUNT>
22

> <PUBCHEM_ISOTOPIC_ATOM_COUNT>
0

> <PUBCHEM_IUPAC_CAS_NAME>
N-[4-(dimethylamino)phenyl]-2-quinolinecarbothioamide

> <PUBCHEM_IUPAC_INCHI>
InChI=1S/C18H17N3S/c1-21(2)15-10-8-14(9-11-15)19-18(22)17-12-7-13-5-3-4-6-16(13)20-17/h3-12H,1-2H3,(H,19,22)

> <PUBCHEM_IUPAC_INCHIKEY>
XJQQBZIYKWJZDB-UHFFFAOYSA-N

> <PUBCHEM_IUPAC_NAME>
N-[4-(dimethylamino)phenyl]quinoline-2-carbothioamide

> <PUBCHEM_IUPAC_OPENEYE_NAME>
N-[4-(dimethylamino)phenyl]quinoline-2-carbothioamide

> <PUBCHEM_IUPAC_SYSTEMATIC_NAME>
N-[4-(dimethylamino)phenyl]quinoline-2-carbothioamide

> <PUBCHEM_IUPAC_TRADITIONAL_NAME>
N-[4-(dimethylamino)phenyl]thioquinaldamide

> <PUBCHEM_MOLECULAR_FORMULA>
C18H17N3S

> <PUBCHEM_MOLECULAR_WEIGHT>
307.41268

> <PUBCHEM_MONOISOTOPIC_WEIGHT>
307.114319

> <PUBCHEM_OPENEYE_CAN_SMILES>
CN(C)C1=CC=C(C=C1)NC(=S)C2=NC3=CC=CC=C3C=C2

> <PUBCHEM_OPENEYE_ISO_SMILES>
CN(C)C1=CC=C(C=C1)NC(=S)C2=NC3=CC=CC=C3C=C2

> <PUBCHEM_TOTAL_CHARGE>
0

> <PUBCHEM_XLOGP3_AA>
4.1

$$$$
Written by BCL::WriteToMDL,1725739
MBcorina  10171218483D 1   1.00000     0.00000 
CORINA 3.49 0026  01.06.2011
 50 53  0  0  0  0  0  0  0  0999 V2000
   -1.3616   -2.3078    4.1970 O   0  0  0  1  0  1  0  0  0  0  0  0
   -1.9910   -4.1818    2.6636 O   0  0  0  1  0  2  0  0  0  0  0  0
   -1.6889   -5.3517    0.1888 O   0  0  0  1  0  2  0  0  0  0  0  0
   -0.2055    1.2304    8.8559 N   0  0  0  1  0  3  0  0  0  0  0  0
    0.0463   -0.6779    3.6535 N   0  0  0  1  0  3  0  0  0  0  0  0
   -0.1300    0.9608    7.4990 C   0  0  0  1  0  3  0  0  0  0  0  0
   -0.1767   -0.4296    7.3218 C   0  0  0  1  0  3  0  0  0  0  0  0
   -0.3006    0.0518    9.5739 C   0  0  0  1  0  3  0  0  0  0  0  0
   -0.2875   -1.0200    8.6686 C   0  0  0  1  0  3  0  0  0  0  0  0
   -0.1817    2.5710    9.4461 C   0  0  0  1  0  4  0  0  0  0  0  0
   -0.1183   -0.9735    6.0410 C   0  0  0  1  0  3  0  0  0  0  0  0
   -0.0237    1.7887    6.3852 C   0  0  0  1  0  3  0  0  0  0  0  0
   -0.3994   -0.2094   10.9370 C   0  0  0  1  0  3  0  0  0  0  0  0
   -0.3724   -2.3291    9.1359 C   0  0  0  1  0  3  0  0  0  0  0  0
   -0.0134   -0.1361    4.9439 C   0  0  0  1  0  3  0  0  0  0  0  0
    0.0339    1.2440    5.1215 C   0  0  0  1  0  3  0  0  0  0  0  0
   -1.6113    3.1043    9.5583 C   0  0  0  1  0  4  0  0  0  0  0  0
   -0.4839   -1.5100   11.3860 C   0  0  0  1  0  3  0  0  0  0  0  0
   -0.4694   -2.5677   10.4902 C   0  0  0  1  0  3  0  0  0  0  0  0
   -0.6267   -1.8096    3.3660 C   0  0  0  1  0  3  0  0  0  0  0  0
   -0.4718   -2.4441    2.0433 C   0  0  0  1  0  3  0  0  0  0  0  0
   -1.1691   -3.6197    1.7410 C   0  0  0  1  0  3  0  0  0  0  0  0
    0.3678   -1.8712    1.0833 C   0  0  0  1  0  3  0  0  0  0  0  0
   -1.0151   -4.2094    0.4898 C   0  0  0  1  0  3  0  0  0  0  0  0
    0.5099   -2.4666   -0.1507 C   0  0  0  1  0  3  0  0  0  0  0  0
   -0.1757   -3.6332   -0.4482 C   0  0  0  1  0  3  0  0  0  0  0  0
   -3.3561   -3.7593    2.6595 C   0  0  0  1  0  4  0  0  0  0  0  0
   -1.4833   -5.9021   -1.1139 C   0  0  0  1  0  4  0  0  0  0  0  0
    0.2673    2.5234   10.4382 H   0  0  0  1  0  1  0  0  0  0  0  0
    0.4056    3.2363    8.8131 H   0  0  0  1  0  1  0  0  0  0  0  0
   -0.1542   -2.0443    5.9044 H   0  0  0  1  0  1  0  0  0  0  0  0
    0.0130    2.8606    6.5121 H   0  0  0  1  0  1  0  0  0  0  0  0
   -0.4105    0.6072   11.6436 H   0  0  0  1  0  1  0  0  0  0  0  0
   -0.3627   -3.1546    8.4396 H   0  0  0  1  0  1  0  0  0  0  0  0
    0.1157    1.8924    4.2617 H   0  0  0  1  0  1  0  0  0  0  0  0
   -2.0603    3.1520    8.5662 H   0  0  0  1  0  1  0  0  0  0  0  0
   -2.1986    2.4391   10.1913 H   0  0  0  1  0  1  0  0  0  0  0  0
   -1.5936    4.1018    9.9975 H   0  0  0  1  0  1  0  0  0  0  0  0
   -0.5596   -1.7067   12.4452 H   0  0  0  1  0  1  0  0  0  0  0  0
   -0.5353   -3.5822   10.8544 H   0  0  0  1  0  1  0  0  0  0  0  0
    0.5719   -0.2384    2.9669 H   0  0  0  1  0  1  0  0  0  0  0  0
    0.9049   -0.9619    1.3092 H   0  0  0  1  0  1  0  0  0  0  0  0
    1.1590   -2.0215   -0.8904 H   0  0  0  1  0  1  0  0  0  0  0  0
   -0.0578   -4.0932   -1.4182 H   0  0  0  1  0  1  0  0  0  0  0  0
   -3.8037   -3.9858    1.6918 H   0  0  0  1  0  1  0  0  0  0  0  0
   -3.9013   -4.2843    3.4439 H   0  0  0  1  0  1  0  0  0  0  0  0
   -3.4046   -2.6854    2.8397 H   0  0  0  1  0  1  0  0  0  0  0  0
   -1.7874   -5.1755   -1.8674 H   0  0  0  1  0  1  0  0  0  0  0  0
   -0.4280   -6.1413   -1.2449 H   0  0  0  1  0  1  0  0  0  0  0  0
   -2.0777   -6.8092   -1.2231 H   0  0  0  1  0  1  0  0  0  0  0  0
  1 20  2  0  0  0  0
  2 22  1  0  0  0  0
  2 27  1  0  0  0  0
  3 24  1  0  0  0  0
  3 28  1  0  0  0  0
  4  6  1  0  0  0  0
  4  8  1  0  0  0  0
  4 10  1  0  0  0  0
  5 15  1  0  0  0  0
  5 20  1  0  0  0  0
  5 41  1  0  0  0  0
  6  7  2  0  0  0  0
  6 12  1  0  0  0  0
  7  9  1  0  0  0  0
  7 11  1  0  0  0  0
  8  9  1  0  0  0  0
  8 13  2  0  0  0  0
  9 14  2  0  0  0  0
 10 17  1  0  0  0  0
 10 29  1  0  0  0  0
 10 30  1  0  0  0  0
 11 15  2  0  0  0  0
 11 31  1  0  0  0  0
 12 16  2  0  0  0  0
 12 32  1  0  0  0  0
 13 18  1  0  0  0  0
 13 33  1  0  0  0  0
 14 19  1  0  0  0  0
 14 34  1  0  0  0  0
 15 16  1  0  0  0  0
 16 35  1  0  0  0  0
 17 36  1  0  0  0  0
 17 37  1  0  0  0  0
 17 38  1  0  0  0  0
 18 19  2  0  0  0  0
 18 39  1  0  0  0  0
 19 40  1  0  0  0  0
 20 21  1  0  0  0  0
 21 22  2  0  0  0  0
 21 23  1  0  0  0  0
 22 24  1  0  0  0  0
 23 25  2  0  0  0  0
 23 42  1  0  0  0  0
 24 26  2  0  0  0  0
 25 26  1  0  0  0  0
 25 43  1  0  0  0  0
 26 44  1  0  0  0  0
 27 45  1  0  0  0  0
 27 46  1  0  0  0  0
 27 47  1  0  0  0  0
 28 48  1  0  0  0  0
 28 49  1  0  0  0  0
 28 50  1  0  0  0  0
M  END
> <Activity>
1.7

> <Mapped(file=504701.csv.activities,property=Cached(PUBCHEM_COMPOUND_CID))>
1.7

> <PUBCHEM_ATOM_DEF_STEREO_COUNT>
0

> <PUBCHEM_ATOM_UDEF_STEREO_COUNT>
0

> <PUBCHEM_BONDANNOTATIONS>
11  15  8
12  16  8
13  18  8
14  19  8
15  16  8
18  19  8
21  22  8
21  23  8
22  24  8
23  25  8
24  26  8
25  26  8
4  6  8
4  8  8
6  12  8
6  7  8
7  11  8
7  9  8
8  13  8
8  9  8
9  14  8

> <PUBCHEM_BOND_DEF_STEREO_COUNT>
0

> <PUBCHEM_BOND_UDEF_STEREO_COUNT>
0

> <PUBCHEM_CACTVS_COMPLEXITY>
542

> <PUBCHEM_CACTVS_HBOND_ACCEPTOR>
3

> <PUBCHEM_CACTVS_HBOND_DONOR>
1

> <PUBCHEM_CACTVS_ROTATABLE_BOND>
5

> <PUBCHEM_CACTVS_SUBSKEYS>
AAADceB7MAAAAAAAAAAAAAAAAAAAAWAAAAAwYMAAAAAAAFgB/AAAHgAQAAAADAzBngYyxvPMFACoAyVyVACCiCAlIiAI2CE+7NgNJvbEtZuEMWpm9BHK6Ye6yPCOgACBQAAKQAAAAQKAABSAAAAAAAAAAA==

> <PUBCHEM_CACTVS_TAUTO_COUNT>
2

> <PUBCHEM_CACTVS_TPSA>
52.5

> <PUBCHEM_COMPONENT_COUNT>
1

> <PUBCHEM_COMPOUND_CANONICALIZED>
1

> <PUBCHEM_COMPOUND_CID>
1725739

> <PUBCHEM_COORDINATE_TYPE>
1
5
255

> <PUBCHEM_EXACT_MASS>
374.163043

> <PUBCHEM_HEAVY_ATOM_COUNT>
28

> <PUBCHEM_ISOTOPIC_ATOM_COUNT>
0

> <PUBCHEM_IUPAC_CAS_NAME>
N-(9-ethyl-3-carbazolyl)-2,3-dimethoxybenzamide

> <PUBCHEM_IUPAC_INCHI>
InChI=1S/C23H22N2O3/c1-4-25-19-10-6-5-8-16(19)18-14-15(12-13-20(18)25)24-23(26)17-9-7-11-21(27-2)22(17)28-3/h5-14H,4H2,1-3H3,(H,24,26)

> <PUBCHEM_IUPAC_INCHIKEY>
OTSSYHNUHICULA-UHFFFAOYSA-N

> <PUBCHEM_IUPAC_NAME>
N-(9-ethylcarbazol-3-yl)-2,3-dimethoxybenzamide

> <PUBCHEM_IUPAC_OPENEYE_NAME>
N-(9-ethylcarbazol-3-yl)-2,3-dimethoxy-benzamide

> <PUBCHEM_IUPAC_SYSTEMATIC_NAME>
N-(9-ethylcarbazol-3-yl)-2,3-dimethoxy-benzamide

> <PUBCHEM_IUPAC_TRADITIONAL_NAME>
N-(9-ethylcarbazol-3-yl)-2,3-dimethoxy-benzamide

> <PUBCHEM_MOLECULAR_FORMULA>
C23H22N2O3

> <PUBCHEM_MOLECULAR_WEIGHT>
374.43238

> <PUBCHEM_MONOISOTOPIC_WEIGHT>
374.163043

> <PUBCHEM_OPENEYE_CAN_SMILES>
CCN1C2=C(C=C(C=C2)NC(=O)C3=C(C(=CC=C3)OC)OC)C4=CC=CC=C41

> <PUBCHEM_OPENEYE_ISO_SMILES>
CCN1C2=C(C=C(C=C2)NC(=O)C3=C(C(=CC=C3)OC)OC)C4=CC=CC=C41

> <PUBCHEM_TOTAL_CHARGE>
0

> <PUBCHEM_XLOGP3_AA>
4.4

$$$$
Written by BCL::WriteToMDL,5343000
MBcorina  10171218483D 1   1.00000     0.00000 
CORINA 3.49 0026  01.06.2011
 49 52  0  0  0  0  0  0  0  0999 V2000
    5.6755   -2.6081   -0.0665 O   0  0  0  1  0  1  0  0  0  0  0  0
   -0.0169    1.3953    0.0097 N   0  0  0  1  0  3  0  0  0  0  0  0
    0.0021   -0.0041    0.0020 N   0  0  0  1  0  2  0  0  0  0  0  0
    4.2047   -0.3902   -0.0406 N   0  0  0  1  0  2  0  0  0  0  0  0
    8.5691   -0.4537   -0.0834 N   0  0  0  1  0  3  0  0  0  0  0  0
    5.6056   -0.3873   -0.0543 N   0  0  0  1  0  3  0  0  0  0  0  0
    9.7986   -0.8245   -0.0968 N   0  0  0  1  0  2  0  0  0  0  0  0
    1.2588    1.8377   -0.0001 C   0  0  0  1  0  3  0  0  0  0  0  0
    2.0784    0.7293   -0.0139 C   0  0  0  1  0  3  0  0  0  0  0  0
    1.2433   -0.4096   -0.0120 C   0  0  0  1  0  3  0  0  0  0  0  0
   -1.1641    2.2001    0.0198 C   0  0  0  1  0  3  0  0  0  0  0  0
    1.7044    3.2774    0.0029 C   0  0  0  1  0  4  0  0  0  0  0  0
    1.7046   -1.8442   -0.0237 C   0  0  0  1  0  4  0  0  0  0  0  0
    3.5536    0.7324   -0.0284 C   0  0  0  1  0  3  0  0  0  0  0  0
   -2.3025    1.7972   -0.6656 C   0  0  0  1  0  3  0  0  0  0  0  0
   -1.1667    3.3991    0.7199 C   0  0  0  1  0  3  0  0  0  0  0  0
    9.8908   -2.1377   -0.1045 C   0  0  0  1  0  3  0  0  0  0  0  0
   -3.4318    2.5923   -0.6534 C   0  0  0  1  0  3  0  0  0  0  0  0
   -2.2990    4.1899    0.7283 C   0  0  0  1  0  3  0  0  0  0  0  0
    7.7531   -1.5501   -0.0815 C   0  0  0  1  0  3  0  0  0  0  0  0
   11.1470   -2.9285   -0.1196 C   0  0  0  1  0  3  0  0  0  0  0  0
    8.5828   -2.6554   -0.0950 C   0  0  0  1  0  3  0  0  0  0  0  0
   -3.4293    3.7887    0.0400 C   0  0  0  1  0  3  0  0  0  0  0  0
    6.2818   -1.5531   -0.0670 C   0  0  0  1  0  3  0  0  0  0  0  0
   12.3805   -2.2812   -0.1275 C   0  0  0  1  0  3  0  0  0  0  0  0
   11.0966   -4.3207   -0.1202 C   0  0  0  1  0  3  0  0  0  0  0  0
   13.5454   -3.0213   -0.1411 C   0  0  0  1  0  3  0  0  0  0  0  0
   12.2676   -5.0512   -0.1338 C   0  0  0  1  0  3  0  0  0  0  0  0
   13.4896   -4.4034   -0.1469 C   0  0  0  1  0  3  0  0  0  0  0  0
    1.8215    3.6193    1.0313 H   0  0  0  1  0  1  0  0  0  0  0  0
    2.6571    3.3639   -0.5195 H   0  0  0  1  0  1  0  0  0  0  0  0
    0.9568    3.8901   -0.5008 H   0  0  0  1  0  1  0  0  0  0  0  0
    1.8063   -2.1848   -1.0541 H   0  0  0  1  0  1  0  0  0  0  0  0
    2.6678   -1.9202    0.4809 H   0  0  0  1  0  1  0  0  0  0  0  0
    0.9734   -2.4652    0.4938 H   0  0  0  1  0  1  0  0  0  0  0  0
    4.0917    1.6688   -0.0288 H   0  0  0  1  0  1  0  0  0  0  0  0
   -2.3048    0.8633   -1.2080 H   0  0  0  1  0  1  0  0  0  0  0  0
   -0.2842    3.7130    1.2576 H   0  0  0  1  0  1  0  0  0  0  0  0
   -4.3175    2.2795   -1.1863 H   0  0  0  1  0  1  0  0  0  0  0  0
   -2.3017    5.1225    1.2730 H   0  0  0  1  0  1  0  0  0  0  0  0
    8.2895   -3.6949   -0.0977 H   0  0  0  1  0  1  0  0  0  0  0  0
   -4.3135    4.4089    0.0478 H   0  0  0  1  0  1  0  0  0  0  0  0
    8.2650    0.4673   -0.0721 H   0  0  0  1  0  1  0  0  0  0  0  0
    6.0889    0.4537   -0.0548 H   0  0  0  1  0  1  0  0  0  0  0  0
   12.4252   -1.2021   -0.1234 H   0  0  0  1  0  1  0  0  0  0  0  0
   10.1429   -4.8275   -0.1096 H   0  0  0  1  0  1  0  0  0  0  0  0
   14.5023   -2.5205   -0.1476 H   0  0  0  1  0  1  0  0  0  0  0  0
   12.2296   -6.1305   -0.1338 H   0  0  0  1  0  1  0  0  0  0  0  0
   14.4035   -4.9788   -0.1575 H   0  0  0  1  0  1  0  0  0  0  0  0
  1 24  2  0  0  0  0
  2  3  1  0  0  0  0
  2  8  1  0  0  0  0
  2 11  1  0  0  0  0
  3 10  2  0  0  0  0
  4  6  1  0  0  0  0
  4 14  2  0  0  0  0
  5  7  1  0  0  0  0
  5 20  1  0  0  0  0
  5 43  1  0  0  0  0
  6 24  1  0  0  0  0
  6 44  1  0  0  0  0
  7 17  2  0  0  0  0
  8  9  2  0  0  0  0
  8 12  1  0  0  0  0
  9 10  1  0  0  0  0
  9 14  1  0  0  0  0
 10 13  1  0  0  0  0
 11 15  2  0  0  0  0
 11 16  1  0  0  0  0
 12 30  1  0  0  0  0
 12 31  1  0  0  0  0
 12 32  1  0  0  0  0
 13 33  1  0  0  0  0
 13 34  1  0  0  0  0
 13 35  1  0  0  0  0
 14 36  1  0  0  0  0
 15 18  1  0  0  0  0
 15 37  1  0  0  0  0
 16 19  2  0  0  0  0
 16 38  1  0  0  0  0
 17 21  1  0  0  0  0
 17 22  1  0  0  0  0
 18 23  2  0  0  0  0
 18 39  1  0  0  0  0
 19 23  1  0  0  0  0
 19 40  1  0  0  0  0
 20 22  2  0  0  0  0
 20 24  1  0  0  0  0
 21 25  2  0  0  0  0
 21 26  1  0  0  0  0
 22 41  1  0  0  0  0
 23 42  1  0  0  0  0
 25 27  1  0  0  0  0
 25 45  1  0  0  0  0
 26 28  2  0  0  0  0
 26 46  1  0  0  0  0
 27 29  2  0  0  0  0
 27 47  1  0  0  0  0
 28 29  1  0  0  0  0
 28 48  1  0  0  0  0
 29 49  1  0  0  0  0
M  END
> <Activity>
1.75

> <Mapped(file=504701.csv.activities,property=Cached(PUBCHEM_COMPOUND_CID))>
1.75

> <PUBCHEM_ATOM_DEF_STEREO_COUNT>
0

> <PUBCHEM_ATOM_UDEF_STEREO_COUNT>
0

> <PUBCHEM_BONDANNOTATIONS>
11  15  8
11  16  8
15  18  8
16  19  8
17  22  8
18  23  8
19  23  8
2  3  8
2  8  8
20  22  8
21  25  8
21  26  8
25  27  8
26  28  8
27  29  8
28  29  8
3  10  8
5  20  8
5  7  8
7  17  8
8  9  8
9  10  8

> <PUBCHEM_BOND_DEF_STEREO_COUNT>
1

> <PUBCHEM_BOND_UDEF_STEREO_COUNT>
0

> <PUBCHEM_CACTVS_COMPLEXITY>
572

> <PUBCHEM_CACTVS_HBOND_ACCEPTOR>
4

> <PUBCHEM_CACTVS_HBOND_DONOR>
2

> <PUBCHEM_CACTVS_ROTATABLE_BOND>
5

> <PUBCHEM_CACTVS_SUBSKEYS>
AAADceB7oAAAAAAAAAAAAAAAAAAAAWLAAAAwYAAAAAAAAAAB9AAAHgAYAAAADAjBngQywJJrAACqAzVzVACSBCAnAgAauSGwZNgIYPLA1dGEpQhgmADIyYcciICOAAAAAAAAAAAAAAAAAAAAAAAAAAAAAA==

> <PUBCHEM_CACTVS_TAUTO_COUNT>
7

> <PUBCHEM_CACTVS_TPSA>
88

> <PUBCHEM_COMPONENT_COUNT>
1

> <PUBCHEM_COMPOUND_CANONICALIZED>
1

> <PUBCHEM_COMPOUND_CID>
5343000

> <PUBCHEM_COORDINATE_TYPE>
1
5
255

> <PUBCHEM_EXACT_MASS>
384.169859

> <PUBCHEM_HEAVY_ATOM_COUNT>
29

> <PUBCHEM_ISOTOPIC_ATOM_COUNT>
0

> <PUBCHEM_IUPAC_CAS_NAME>
N-[(E)-(3,5-dimethyl-1-phenyl-4-pyrazolyl)methylideneamino]-3-phenyl-1H-pyrazole-5-carboxamide

> <PUBCHEM_IUPAC_INCHI>
InChI=1S/C22H20N6O/c1-15-19(16(2)28(27-15)18-11-7-4-8-12-18)14-23-26-22(29)21-13-20(24-25-21)17-9-5-3-6-10-17/h3-14H,1-2H3,(H,24,25)(H,26,29)/b23-14+

> <PUBCHEM_IUPAC_INCHIKEY>
MVBKUFCOWPEERW-OEAKJJBVSA-N

> <PUBCHEM_IUPAC_NAME>
N-[(E)-(3,5-dimethyl-1-phenylpyrazol-4-yl)methylideneamino]-3-phenyl-1H-pyrazole-5-carboxamide

> <PUBCHEM_IUPAC_OPENEYE_NAME>
N-[(E)-(3,5-dimethyl-1-phenyl-pyrazol-4-yl)methyleneamino]-3-phenyl-1H-pyrazole-5-carboxamide

> <PUBCHEM_IUPAC_SYSTEMATIC_NAME>
N-[(E)-(3,5-dimethyl-1-phenyl-pyrazol-4-yl)methylideneamino]-3-phenyl-1H-pyrazole-5-carboxamide

> <PUBCHEM_IUPAC_TRADITIONAL_NAME>
N-[(E)-(3,5-dimethyl-1-phenyl-pyrazol-4-yl)methyleneamino]-3-phenyl-1H-pyrazole-5-carboxamide

> <PUBCHEM_MOLECULAR_FORMULA>
C22H20N6O

> <PUBCHEM_MOLECULAR_WEIGHT>
384.4338

> <PUBCHEM_MONOISOTOPIC_WEIGHT>
384.169859

> <PUBCHEM_OPENEYE_CAN_SMILES>
CC1=C(C(=NN1C2=CC=CC=C2)C)C=NNC(=O)C3=CC(=NN3)C4=CC=CC=C4

> <PUBCHEM_OPENEYE_ISO_SMILES>
CC1=C(C(=NN1C2=CC=CC=C2)C)/C=N/NC(=O)C3=CC(=NN3)C4=CC=CC=C4

> <PUBCHEM_TOTAL_CHARGE>
0

> <PUBCHEM_XLOGP3_AA>
3.9

$$$$
Written by BCL::WriteToMDL,947342
MBcorina  10171218483D 1   1.00000     0.00000 
CORINA 3.49 0026  01.06.2011
 38 41  0  0  0  0  0  0  0  0999 V2000
   -0.0200    1.7958    0.2507 S   0  0  0  1  0  2  0  0  0  0  0  0
   -2.3325    0.2529   -0.0658 O   0  0  0  1  0  1  0  0  0  0  0  0
   -2.0123   -4.0051    0.7164 N   0  0  0  1  0  3  0  0  0  0  0  0
    2.2689    3.3615    0.4704 N   0  0  0  1  0  3  0  0  0  0  0  0
    2.6492    1.2083    0.3290 N   0  0  0  1  0  2  0  0  0  0  0  0
   -1.6501   -1.9221    0.0153 C   0  0  0  1  0  3  0  0  0  0  0  0
   -1.8078   -2.7940   -1.1655 C   0  0  0  1  0  3  0  0  0  0  0  0
   -2.0319   -4.0848   -0.6614 C   0  0  0  1  0  3  0  0  0  0  0  0
   -1.7887   -2.7390    1.1171 C   0  0  0  1  0  3  0  0  0  0  0  0
   -1.4051   -0.5262    0.0160 C   0  0  0  1  0  3  0  0  0  0  0  0
   -1.7752   -2.5758   -2.5394 C   0  0  0  1  0  3  0  0  0  0  0  0
   -2.2211   -5.1391   -1.5489 C   0  0  0  1  0  3  0  0  0  0  0  0
   -1.7032   -2.2844    2.5514 C   0  0  0  1  0  4  0  0  0  0  0  0
    0.0067   -0.0091    0.1183 C   0  0  0  1  0  4  0  0  0  0  0  0
   -1.9655   -3.6332   -3.4029 C   0  0  0  1  0  3  0  0  0  0  0  0
   -2.1871   -4.9093   -2.9073 C   0  0  0  1  0  3  0  0  0  0  0  0
    3.6426    3.1886    0.5207 C   0  0  0  1  0  3  0  0  0  0  0  0
    1.7088    2.1207    0.3531 C   0  0  0  1  0  3  0  0  0  0  0  0
    3.8661    1.8045    0.4289 C   0  0  0  1  0  3  0  0  0  0  0  0
    4.7168    4.0572    0.6341 C   0  0  0  1  0  3  0  0  0  0  0  0
    5.1746    1.3164    0.4526 C   0  0  0  1  0  3  0  0  0  0  0  0
    6.0038    3.5590    0.6565 C   0  0  0  1  0  3  0  0  0  0  0  0
    6.2301    2.1941    0.5654 C   0  0  0  1  0  3  0  0  0  0  0  0
   -2.1454   -4.7573    1.3142 H   0  0  0  1  0  1  0  0  0  0  0  0
   -1.6028   -1.5827   -2.9272 H   0  0  0  1  0  1  0  0  0  0  0  0
   -2.3941   -6.1369   -1.1736 H   0  0  0  1  0  1  0  0  0  0  0  0
   -0.6593   -2.2645    2.8645 H   0  0  0  1  0  1  0  0  0  0  0  0
   -2.1287   -1.2850    2.6418 H   0  0  0  1  0  1  0  0  0  0  0  0
   -2.2596   -2.9749    3.1852 H   0  0  0  1  0  1  0  0  0  0  0  0
    0.5655   -0.3000   -0.7712 H   0  0  0  1  0  1  0  0  0  0  0  0
    0.4851   -0.4312    1.0021 H   0  0  0  1  0  1  0  0  0  0  0  0
   -1.9412   -3.4673   -4.4698 H   0  0  0  1  0  1  0  0  0  0  0  0
   -2.3345   -5.7310   -3.5925 H   0  0  0  1  0  1  0  0  0  0  0  0
    1.7933    4.2057    0.5144 H   0  0  0  1  0  1  0  0  0  0  0  0
    4.5472    5.1214    0.7045 H   0  0  0  1  0  1  0  0  0  0  0  0
    5.3581    0.2544    0.3830 H   0  0  0  1  0  1  0  0  0  0  0  0
    6.8400    4.2367    0.7445 H   0  0  0  1  0  1  0  0  0  0  0  0
    7.2417    1.8162    0.5836 H   0  0  0  1  0  1  0  0  0  0  0  0
  1 14  1  0  0  0  0
  1 18  1  0  0  0  0
  2 10  2  0  0  0  0
  3  8  1  0  0  0  0
  3  9  1  0  0  0  0
  3 24  1  0  0  0  0
  4 17  1  0  0  0  0
  4 18  1  0  0  0  0
  4 34  1  0  0  0  0
  5 18  2  0  0  0  0
  5 19  1  0  0  0  0
  6  7  1  0  0  0  0
  6  9  2  0  0  0  0
  6 10  1  0  0  0  0
  7  8  1  0  0  0  0
  7 11  2  0  0  0  0
  8 12  2  0  0  0  0
  9 13  1  0  0  0  0
 10 14  1  0  0  0  0
 11 15  1  0  0  0  0
 11 25  1  0  0  0  0
 12 16  1  0  0  0  0
 12 26  1  0  0  0  0
 13 27  1  0  0  0  0
 13 28  1  0  0  0  0
 13 29  1  0  0  0  0
 14 30  1  0  0  0  0
 14 31  1  0  0  0  0
 15 16  2  0  0  0  0
 15 32  1  0  0  0  0
 16 33  1  0  0  0  0
 17 19  1  0  0  0  0
 17 20  2  0  0  0  0
 19 21  2  0  0  0  0
 20 22  1  0  0  0  0
 20 35  1  0  0  0  0
 21 23  1  0  0  0  0
 21 36  1  0  0  0  0
 22 23  2  0  0  0  0
 22 37  1  0  0  0  0
 23 38  1  0  0  0  0
M  END
> <Activity>
3.417

> <Mapped(file=504701.csv.activities,property=Cached(PUBCHEM_COMPOUND_CID))>
3.417

> <PUBCHEM_ATOM_DEF_STEREO_COUNT>
0

> <PUBCHEM_ATOM_UDEF_STEREO_COUNT>
0

> <PUBCHEM_BONDANNOTATIONS>
11  15  8
12  16  8
15  16  8
17  19  8
17  20  8
19  21  8
20  22  8
21  23  8
22  23  8
3  8  8
3  9  8
4  17  8
4  18  8
5  18  8
5  19  8
6  7  8
6  9  8
7  11  8
7  8  8
8  12  8

> <PUBCHEM_BOND_DEF_STEREO_COUNT>
0

> <PUBCHEM_BOND_UDEF_STEREO_COUNT>
0

> <PUBCHEM_CACTVS_COMPLEXITY>
446

> <PUBCHEM_CACTVS_HBOND_ACCEPTOR>
2

> <PUBCHEM_CACTVS_HBOND_DONOR>
2

> <PUBCHEM_CACTVS_ROTATABLE_BOND>
4

> <PUBCHEM_CACTVS_SUBSKEYS>
AAADccB7IABAAAAAAAAAAAAAAAAAAWLAAAAwYAAAAAAAAFgB/gAAHgQQAAAADAyF3gCz0PbJkAioA6RyZACC0i3lErAJmSEwdNiIaPrgnZGUIYhokALIyWcciMCOgAAAAAACACAAAAAAAAQAQAAAAAAAAA==

> <PUBCHEM_CACTVS_TAUTO_COUNT>
8

> <PUBCHEM_CACTVS_TPSA>
86.8

> <PUBCHEM_COMPONENT_COUNT>
1

> <PUBCHEM_COMPOUND_CANONICALIZED>
1

> <PUBCHEM_COMPOUND_CID>
947342

> <PUBCHEM_COORDINATE_TYPE>
1
5
255

> <PUBCHEM_EXACT_MASS>
321.093583

> <PUBCHEM_HEAVY_ATOM_COUNT>
23

> <PUBCHEM_ISOTOPIC_ATOM_COUNT>
0

> <PUBCHEM_IUPAC_CAS_NAME>
2-(1H-benzimidazol-2-ylthio)-1-(2-methyl-1H-indol-3-yl)ethanone

> <PUBCHEM_IUPAC_INCHI>
InChI=1S/C18H15N3OS/c1-11-17(12-6-2-3-7-13(12)19-11)16(22)10-23-18-20-14-8-4-5-9-15(14)21-18/h2-9,19H,10H2,1H3,(H,20,21)

> <PUBCHEM_IUPAC_INCHIKEY>
RHZUDNCYNPRDGJ-UHFFFAOYSA-N

> <PUBCHEM_IUPAC_NAME>
2-(1H-benzimidazol-2-ylsulfanyl)-1-(2-methyl-1H-indol-3-yl)ethanone

> <PUBCHEM_IUPAC_OPENEYE_NAME>
2-(1H-benzimidazol-2-ylsulfanyl)-1-(2-methyl-1H-indol-3-yl)ethanone

> <PUBCHEM_IUPAC_SYSTEMATIC_NAME>
2-(1H-benzimidazol-2-ylsulfanyl)-1-(2-methyl-1H-indol-3-yl)ethanone

> <PUBCHEM_IUPAC_TRADITIONAL_NAME>
2-(1H-benzimidazol-2-ylthio)-1-(2-methyl-1H-indol-3-yl)ethanone

> <PUBCHEM_MOLECULAR_FORMULA>
C18H15N3OS

> <PUBCHEM_MOLECULAR_WEIGHT>
321.3962

> <PUBCHEM_MONOISOTOPIC_WEIGHT>
321.093583

> <PUBCHEM_OPENEYE_CAN_SMILES>
CC1=C(C2=CC=CC=C2N1)C(=O)CSC3=NC4=CC=CC=C4N3

> <PUBCHEM_OPENEYE_ISO_SMILES>
CC1=C(C2=CC=CC=C2N1)C(=O)CSC3=NC4=CC=CC=C4N3

> <PUBCHEM_TOTAL_CHARGE>
0

> <PUBCHEM_XLOGP3_AA>
4.3

$$$$
Written by BCL::WriteToMDL,2404639
MBcorina  10171218483D 1   1.00000     0.00000 
CORINA 3.49 0026  01.06.2011
 70 73  0  0  0  0  0  0  0  0999 V2000
    0.7405    2.5371   -0.2678 S   0  0  0  1  0  4  0  0  0  0  0  0
   -2.4796    4.7276    7.7262 O   0  0  0  1  0  1  0  0  0  0  0  0
   -1.6674    3.3850    5.6320 O   0  0  0  1  0  2  0  0  0  0  0  0
   -0.0910    5.0429   -1.3207 O   0  0  0  1  0  1  0  0  0  0  0  0
    1.2998    1.3208    0.2086 O   0  0  0  1  0  1  0  0  0  0  0  0
    1.4643    3.4666   -1.0625 O   0  0  0  1  0  1  0  0  0  0  0  0
   -1.2914    1.4908    4.5378 O   0  0  0  1  0  1  0  0  0  0  0  0
   -3.0800    3.0201    9.0092 N   0  0  0  1  0  3  0  0  0  0  0  0
   -3.0062    4.1575   -2.8413 N   0  0  0  1  0  3  0  0  0  0  0  0
   -2.0712    5.1308   -2.4652 N   0  0  0  1  0  3  0  0  0  0  0  0
   -0.6044    2.1231   -1.1409 N   0  0  0  1  0  3  0  0  0  0  0  0
   -3.4910    3.9192   10.0904 C   0  0  0  1  0  4  0  0  0  0  0  0
   -4.9766    3.7101   10.3905 C   0  0  0  1  0  4  0  0  0  0  0  0
   -2.6697    3.6165   11.3453 C   0  0  0  1  0  4  0  0  0  0  0  0
   -3.0990    4.5554   12.4745 C   0  0  0  1  0  4  0  0  0  0  0  0
   -5.4059    4.6490   11.5197 C   0  0  0  1  0  4  0  0  0  0  0  0
   -4.5846    4.3464   12.7746 C   0  0  0  1  0  4  0  0  0  0  0  0
   -3.2071    1.5700    9.1741 C   0  0  0  1  0  4  0  0  0  0  0  0
   -2.5849    3.5271    7.8627 C   0  0  0  1  0  3  0  0  0  0  0  0
   -2.1621    2.6023    6.7505 C   0  0  0  1  0  4  0  0  0  0  0  0
   -2.5605    2.9388   -2.3895 C   0  0  0  1  0  3  0  0  0  0  0  0
   -1.3867    3.1269   -1.7500 C   0  0  0  1  0  3  0  0  0  0  0  0
   -1.0773    4.5106   -1.7975 C   0  0  0  1  0  3  0  0  0  0  0  0
   -1.2464    2.7046    4.5482 C   0  0  0  1  0  3  0  0  0  0  0  0
   -2.1537    6.5004   -2.7346 C   0  0  0  1  0  3  0  0  0  0  0  0
    0.1883    3.4210    1.1529 C   0  0  0  1  0  3  0  0  0  0  0  0
   -0.7301    3.4347    3.3724 C   0  0  0  1  0  3  0  0  0  0  0  0
   -3.2620    1.6181   -2.5760 C   0  0  0  1  0  4  0  0  0  0  0  0
   -4.2470    4.3982   -3.5821 C   0  0  0  1  0  4  0  0  0  0  0  0
   -0.2930    2.7328    2.2475 C   0  0  0  1  0  3  0  0  0  0  0  0
    0.2438    4.8032    1.1705 C   0  0  0  1  0  3  0  0  0  0  0  0
   -0.6762    4.8302    3.3813 C   0  0  0  1  0  3  0  0  0  0  0  0
   -1.9196    7.4239   -1.7238 C   0  0  0  1  0  3  0  0  0  0  0  0
   -2.4642    6.9405   -4.0149 C   0  0  0  1  0  3  0  0  0  0  0  0
   -0.1878    5.5053    2.2822 C   0  0  0  1  0  3  0  0  0  0  0  0
   -2.0014    8.7759   -1.9934 C   0  0  0  1  0  3  0  0  0  0  0  0
   -2.5444    8.2939   -4.2777 C   0  0  0  1  0  3  0  0  0  0  0  0
   -2.3164    9.2106   -3.2678 C   0  0  0  1  0  3  0  0  0  0  0  0
   -3.3235    4.9526    9.7871 H   0  0  0  1  0  1  0  0  0  0  0  0
   -2.8372    2.5830   11.6486 H   0  0  0  1  0  1  0  0  0  0  0  0
   -1.6113    3.7654   11.1315 H   0  0  0  1  0  1  0  0  0  0  0  0
   -5.5617    3.9258    9.4965 H   0  0  0  1  0  1  0  0  0  0  0  0
   -5.1441    2.6767   10.6938 H   0  0  0  1  0  1  0  0  0  0  0  0
   -2.5139    4.3398   13.3685 H   0  0  0  1  0  1  0  0  0  0  0  0
   -2.9315    5.5889   12.1712 H   0  0  0  1  0  1  0  0  0  0  0  0
   -5.2384    5.6825   11.2163 H   0  0  0  1  0  1  0  0  0  0  0  0
   -6.4643    4.5001   11.7335 H   0  0  0  1  0  1  0  0  0  0  0  0
   -4.7521    3.3129   13.0779 H   0  0  0  1  0  1  0  0  0  0  0  0
   -4.8904    5.0153   13.5790 H   0  0  0  1  0  1  0  0  0  0  0  0
   -4.1875    1.2489    8.8223 H   0  0  0  1  0  1  0  0  0  0  0  0
   -2.4313    1.0691    8.5951 H   0  0  0  1  0  1  0  0  0  0  0  0
   -3.0971    1.3132   10.2277 H   0  0  0  1  0  1  0  0  0  0  0  0
   -3.0166    2.0075    6.4280 H   0  0  0  1  0  1  0  0  0  0  0  0
   -1.3731    1.9408    7.1082 H   0  0  0  1  0  1  0  0  0  0  0  0
   -0.8543    1.1904   -1.2335 H   0  0  0  1  0  1  0  0  0  0  0  0
   -2.9126    1.1478   -3.4952 H   0  0  0  1  0  1  0  0  0  0  0  0
   -3.0431    0.9677   -1.7291 H   0  0  0  1  0  1  0  0  0  0  0  0
   -4.3375    1.7836   -2.6386 H   0  0  0  1  0  1  0  0  0  0  0  0
   -4.0354    4.4095   -4.6513 H   0  0  0  1  0  1  0  0  0  0  0  0
   -4.9616    3.6053   -3.3615 H   0  0  0  1  0  1  0  0  0  0  0  0
   -4.6671    5.3590   -3.2847 H   0  0  0  1  0  1  0  0  0  0  0  0
   -0.3320    1.6536    2.2341 H   0  0  0  1  0  1  0  0  0  0  0  0
    0.6259    5.3368    0.3127 H   0  0  0  1  0  1  0  0  0  0  0  0
   -1.6743    7.0850   -0.7282 H   0  0  0  1  0  1  0  0  0  0  0  0
   -2.6424    6.2250   -4.8041 H   0  0  0  1  0  1  0  0  0  0  0  0
   -1.0126    5.3793    4.2483 H   0  0  0  1  0  1  0  0  0  0  0  0
   -0.1419    6.5843    2.2893 H   0  0  0  1  0  1  0  0  0  0  0  0
   -1.8196    9.4945   -1.2079 H   0  0  0  1  0  1  0  0  0  0  0  0
   -2.7858    8.6368   -5.2730 H   0  0  0  1  0  1  0  0  0  0  0  0
   -2.3801   10.2685   -3.4758 H   0  0  0  1  0  1  0  0  0  0  0  0
  1  5  2  0  0  0  0
  1  6  2  0  0  0  0
  1 11  1  0  0  0  0
  1 26  1  0  0  0  0
  2 19  2  0  0  0  0
  3 20  1  0  0  0  0
  3 24  1  0  0  0  0
  4 23  2  0  0  0  0
  7 24  2  0  0  0  0
  8 12  1  0  0  0  0
  8 18  1  0  0  0  0
  8 19  1  0  0  0  0
  9 10  1  0  0  0  0
  9 21  1  0  0  0  0
  9 29  1  0  0  0  0
 10 23  1  0  0  0  0
 10 25  1  0  0  0  0
 11 22  1  0  0  0  0
 11 55  1  0  0  0  0
 12 13  1  0  0  0  0
 12 14  1  0  0  0  0
 12 39  1  0  0  0  0
 13 16  1  0  0  0  0
 13 42  1  0  0  0  0
 13 43  1  0  0  0  0
 14 15  1  0  0  0  0
 14 40  1  0  0  0  0
 14 41  1  0  0  0  0
 15 17  1  0  0  0  0
 15 44  1  0  0  0  0
 15 45  1  0  0  0  0
 16 17  1  0  0  0  0
 16 46  1  0  0  0  0
 16 47  1  0  0  0  0
 17 48  1  0  0  0  0
 17 49  1  0  0  0  0
 18 50  1  0  0  0  0
 18 51  1  0  0  0  0
 18 52  1  0  0  0  0
 19 20  1  0  0  0  0
 20 53  1  0  0  0  0
 20 54  1  0  0  0  0
 21 22  2  0  0  0  0
 21 28  1  0  0  0  0
 22 23  1  0  0  0  0
 24 27  1  0  0  0  0
 25 33  2  0  0  0  0
 25 34  1  0  0  0  0
 26 30  1  0  0  0  0
 26 31  2  0  0  0  0
 27 30  2  0  0  0  0
 27 32  1  0  0  0  0
 28 56  1  0  0  0  0
 28 57  1  0  0  0  0
 28 58  1  0  0  0  0
 29 59  1  0  0  0  0
 29 60  1  0  0  0  0
 29 61  1  0  0  0  0
 30 62  1  0  0  0  0
 31 35  1  0  0  0  0
 31 63  1  0  0  0  0
 32 35  2  0  0  0  0
 32 66  1  0  0  0  0
 33 36  1  0  0  0  0
 33 64  1  0  0  0  0
 34 37  2  0  0  0  0
 34 65  1  0  0  0  0
 35 67  1  0  0  0  0
 36 38  2  0  0  0  0
 36 68  1  0  0  0  0
 37 38  1  0  0  0  0
 37 69  1  0  0  0  0
 38 70  1  0  0  0  0
M  END
> <Activity>
0.14196

> <Mapped(file=504701.csv.activities,property=Cached(PUBCHEM_COMPOUND_CID))>
0.14196

> <PUBCHEM_ATOM_DEF_STEREO_COUNT>
0

> <PUBCHEM_ATOM_UDEF_STEREO_COUNT>
0

> <PUBCHEM_BONDANNOTATIONS>
10  23  8
21  22  8
22  23  8
25  33  8
25  34  8
26  30  8
26  31  8
27  30  8
27  32  8
31  35  8
32  35  8
33  36  8
34  37  8
36  38  8
37  38  8
9  10  8
9  21  8

> <PUBCHEM_BOND_DEF_STEREO_COUNT>
0

> <PUBCHEM_BOND_UDEF_STEREO_COUNT>
0

> <PUBCHEM_CACTVS_COMPLEXITY>
1030

> <PUBCHEM_CACTVS_HBOND_ACCEPTOR>
8

> <PUBCHEM_CACTVS_HBOND_DONOR>
1

> <PUBCHEM_CACTVS_ROTATABLE_BOND>
9

> <PUBCHEM_CACTVS_SUBSKEYS>
AAADcfB7uABAAAAAAAAAAAAAAAAAAQAAAAAwYMAAAAAAAAABQAAAHgQYQAAADCjh2AYyyYNABAKIAiXSWHLCBBAlAgAaiBnIbMgKZjLAtZ2XMQhkxgHY6ceYyCCOAAAAgAAAAAAAAAEAAAAAAAAAAAAAAA==

> <PUBCHEM_CACTVS_TAUTO_COUNT>
1

> <PUBCHEM_CACTVS_TPSA>
125

> <PUBCHEM_COMPONENT_COUNT>
1

> <PUBCHEM_COMPOUND_CANONICALIZED>
1

> <PUBCHEM_COMPOUND_CID>
2404639

> <PUBCHEM_COORDINATE_TYPE>
1
5
255

> <PUBCHEM_EXACT_MASS>
540.204256

> <PUBCHEM_HEAVY_ATOM_COUNT>
38

> <PUBCHEM_ISOTOPIC_ATOM_COUNT>
0

> <PUBCHEM_IUPAC_CAS_NAME>
3-[(1,5-dimethyl-3-oxo-2-phenyl-4-pyrazolyl)sulfamoyl]benzoic acid [2-[cyclohexyl(methyl)amino]-2-oxoethyl] ester

> <PUBCHEM_IUPAC_INCHI>
InChI=1S/C27H32N4O6S/c1-19-25(26(33)31(30(19)3)22-14-8-5-9-15-22)28-38(35,36)23-16-10-11-20(17-23)27(34)37-18-24(32)29(2)21-12-6-4-7-13-21/h5,8-11,14-17,21,28H,4,6-7,12-13,18H2,1-3H3

> <PUBCHEM_IUPAC_INCHIKEY>
DDDBKMDXAQXLON-UHFFFAOYSA-N

> <PUBCHEM_IUPAC_NAME>
[2-[cyclohexyl(methyl)amino]-2-oxoethyl] 3-[(1,5-dimethyl-3-oxo-2-phenylpyrazol-4-yl)sulfamoyl]benzoate

> <PUBCHEM_IUPAC_OPENEYE_NAME>
[2-[cyclohexyl(methyl)amino]-2-oxo-ethyl] 3-[(1,5-dimethyl-3-oxo-2-phenyl-pyrazol-4-yl)sulfamoyl]benzoate

> <PUBCHEM_IUPAC_SYSTEMATIC_NAME>
[2-[cyclohexyl(methyl)amino]-2-oxidanylidene-ethyl] 3-[(1,5-dimethyl-3-oxidanylidene-2-phenyl-pyrazol-4-yl)sulfamoyl]benzoate

> <PUBCHEM_IUPAC_TRADITIONAL_NAME>
3-[(3-keto-1,5-dimethyl-2-phenyl-3-pyrazolin-4-yl)sulfamoyl]benzoic acid [2-[cyclohexyl(methyl)amino]-2-keto-ethyl] ester

> <PUBCHEM_MOLECULAR_FORMULA>
C27H32N4O6S

> <PUBCHEM_MOLECULAR_WEIGHT>
540.63118

> <PUBCHEM_MONOISOTOPIC_WEIGHT>
540.204256

> <PUBCHEM_OPENEYE_CAN_SMILES>
CC1=C(C(=O)N(N1C)C2=CC=CC=C2)NS(=O)(=O)C3=CC=CC(=C3)C(=O)OCC(=O)N(C)C4CCCCC4

> <PUBCHEM_OPENEYE_ISO_SMILES>
CC1=C(C(=O)N(N1C)C2=CC=CC=C2)NS(=O)(=O)C3=CC=CC(=C3)C(=O)OCC(=O)N(C)C4CCCCC4

> <PUBCHEM_TOTAL_CHARGE>
0

> <PUBCHEM_XLOGP3_AA>
3.9

$$$$
Written by BCL::WriteToMDL,1261960
MBcorina  10171218483D 1   1.00000     0.00000 
CORINA 3.49 0026  01.06.2011
 48 51  0  0  0  0  0  0  0  0999 V2000
   -5.8629    4.5485   11.5627 Cl  0  0  0  1  0  1  0  0  0  0  0  0
    0.2356    1.9431    0.0243 S   0  0  0  1  0  4  0  0  0  0  0  0
   -4.0227    3.4105    7.4274 O   0  0  0  1  0  1  0  0  0  0  0  0
    0.3550    0.5287   -0.0429 O   0  0  0  1  0  1  0  0  0  0  0  0
    1.3556    2.8159    0.0792 O   0  0  0  1  0  1  0  0  0  0  0  0
   -2.3588    2.7525    6.1120 N   0  0  0  1  0  3  0  0  0  0  0  0
   -0.7555    1.7953   10.8334 N   0  0  0  1  0  2  0  0  0  0  0  0
    1.5348    0.5438    8.3418 N   0  0  0  1  0  2  0  0  0  0  0  0
   -0.6498    2.4010   -1.2981 N   0  0  0  1  0  3  0  0  0  0  0  0
   -2.1644    2.5371    8.5436 C   0  0  0  1  0  3  0  0  0  0  0  0
   -2.6823    2.8248    9.8811 C   0  0  0  1  0  3  0  0  0  0  0  0
   -3.0984    3.1409    4.9085 C   0  0  0  1  0  4  0  0  0  0  0  0
   -1.9191    2.4227   11.0067 C   0  0  0  1  0  3  0  0  0  0  0  0
   -2.2657    2.8417    3.6887 C   0  0  0  1  0  3  0  0  0  0  0  0
   -0.9451    1.8791    8.4608 C   0  0  0  1  0  3  0  0  0  0  0  0
   -2.9110    2.9291    7.3287 C   0  0  0  1  0  3  0  0  0  0  0  0
   -0.2719    1.5259    9.6396 C   0  0  0  1  0  3  0  0  0  0  0  0
   -3.9023    3.4837   10.0668 C   0  0  0  1  0  3  0  0  0  0  0  0
   -0.7382    2.2929    1.4506 C   0  0  0  1  0  3  0  0  0  0  0  0
   -2.3633    1.6091    3.0705 C   0  0  0  1  0  3  0  0  0  0  0  0
   -1.4090    3.8021    3.1841 C   0  0  0  1  0  3  0  0  0  0  0  0
   -2.4115    2.6964   12.2970 C   0  0  0  1  0  3  0  0  0  0  0  0
   -1.5994    1.3347    1.9515 C   0  0  0  1  0  3  0  0  0  0  0  0
   -0.6451    3.5276    2.0651 C   0  0  0  1  0  3  0  0  0  0  0  0
    1.0309    0.8241    9.5368 C   0  0  0  1  0  3  0  0  0  0  0  0
   -4.3492    3.7304   11.3322 C   0  0  0  1  0  3  0  0  0  0  0  0
   -3.6025    3.3373   12.4427 C   0  0  0  1  0  3  0  0  0  0  0  0
    1.7149    0.4644   10.6957 C   0  0  0  1  0  3  0  0  0  0  0  0
    2.9299   -0.1908   10.5839 C   0  0  0  1  0  3  0  0  0  0  0  0
    2.6876   -0.0781    8.2071 C   0  0  0  1  0  3  0  0  0  0  0  0
    3.4202   -0.4643    9.3156 C   0  0  0  1  0  3  0  0  0  0  0  0
   -4.0313    2.5793    4.8583 H   0  0  0  1  0  1  0  0  0  0  0  0
   -3.3183    4.2078    4.9456 H   0  0  0  1  0  1  0  0  0  0  0  0
   -0.5181    1.6422    7.4976 H   0  0  0  1  0  1  0  0  0  0  0  0
   -1.4716    2.3683    6.0332 H   0  0  0  1  0  1  0  0  0  0  0  0
   -4.4874    3.7942    9.2138 H   0  0  0  1  0  1  0  0  0  0  0  0
   -3.0356    0.8602    3.4623 H   0  0  0  1  0  1  0  0  0  0  0  0
   -1.3363    4.7667    3.6642 H   0  0  0  1  0  1  0  0  0  0  0  0
   -1.8461    2.3984   13.1676 H   0  0  0  1  0  1  0  0  0  0  0  0
   -1.6721    0.3700    1.4714 H   0  0  0  1  0  1  0  0  0  0  0  0
    0.0277    4.2763    1.6737 H   0  0  0  1  0  1  0  0  0  0  0  0
   -3.9761    3.5450   13.4345 H   0  0  0  1  0  1  0  0  0  0  0  0
    1.3037    0.6935   11.6677 H   0  0  0  1  0  1  0  0  0  0  0  0
   -0.8878    1.7461   -1.9729 H   0  0  0  1  0  1  0  0  0  0  0  0
   -0.9305    3.3242   -1.3978 H   0  0  0  1  0  1  0  0  0  0  0  0
    3.4833   -0.4818   11.4645 H   0  0  0  1  0  1  0  0  0  0  0  0
    3.0664   -0.2895    7.2181 H   0  0  0  1  0  1  0  0  0  0  0  0
    4.3645   -0.9742    9.1944 H   0  0  0  1  0  1  0  0  0  0  0  0
  1 26  1  0  0  0  0
  2  4  2  0  0  0  0
  2  5  2  0  0  0  0
  2  9  1  0  0  0  0
  2 19  1  0  0  0  0
  3 16  2  0  0  0  0
  6 12  1  0  0  0  0
  6 16  1  0  0  0  0
  6 35  1  0  0  0  0
  7 13  1  0  0  0  0
  7 17  2  0  0  0  0
  8 25  1  0  0  0  0
  8 30  2  0  0  0  0
  9 44  1  0  0  0  0
  9 45  1  0  0  0  0
 10 11  1  0  0  0  0
 10 15  2  0  0  0  0
 10 16  1  0  0  0  0
 11 13  2  0  0  0  0
 11 18  1  0  0  0  0
 12 14  1  0  0  0  0
 12 32  1  0  0  0  0
 12 33  1  0  0  0  0
 13 22  1  0  0  0  0
 14 20  2  0  0  0  0
 14 21  1  0  0  0  0
 15 17  1  0  0  0  0
 15 34  1  0  0  0  0
 17 25  1  0  0  0  0
 18 26  2  0  0  0  0
 18 36  1  0  0  0  0
 19 23  2  0  0  0  0
 19 24  1  0  0  0  0
 20 23  1  0  0  0  0
 20 37  1  0  0  0  0
 21 24  2  0  0  0  0
 21 38  1  0  0  0  0
 22 27  2  0  0  0  0
 22 39  1  0  0  0  0
 23 40  1  0  0  0  0
 24 41  1  0  0  0  0
 25 28  2  0  0  0  0
 26 27  1  0  0  0  0
 27 42  1  0  0  0  0
 28 29  1  0  0  0  0
 28 43  1  0  0  0  0
 29 31  2  0  0  0  0
 29 46  1  0  0  0  0
 30 31  1  0  0  0  0
 30 47  1  0  0  0  0
 31 48  1  0  0  0  0
M  END
> <Activity>
2.458

> <Mapped(file=504701.csv.activities,property=Cached(PUBCHEM_COMPOUND_CID))>
2.458

> <PUBCHEM_ATOM_DEF_STEREO_COUNT>
0

> <PUBCHEM_ATOM_UDEF_STEREO_COUNT>
0

> <PUBCHEM_BONDANNOTATIONS>
10  11  8
10  15  8
11  13  8
11  18  8
13  22  8
14  20  8
14  21  8
15  17  8
18  26  8
19  23  8
19  24  8
20  23  8
21  24  8
22  27  8
25  28  8
26  27  8
28  29  8
29  31  8
30  31  8
7  13  8
7  17  8
8  25  8
8  30  8

> <PUBCHEM_BOND_DEF_STEREO_COUNT>
0

> <PUBCHEM_BOND_UDEF_STEREO_COUNT>
0

> <PUBCHEM_CACTVS_COMPLEXITY>
723

> <PUBCHEM_CACTVS_HBOND_ACCEPTOR>
6

> <PUBCHEM_CACTVS_HBOND_DONOR>
2

> <PUBCHEM_CACTVS_ROTATABLE_BOND>
5

> <PUBCHEM_CACTVS_SUBSKEYS>
AAADceB7sABEAAAAAAAAAAAAAAAAAAAAAAA8eIEAAAAAAACx/AAAHgYQQAAADArB3iQ8wfLIEAKoAzV3VHDCgDA1ByAI2Lk4ZtgIYPLBl5GUIQhghgDIyYccicCekABAIAACAAAgAIBAAAQAAAAAAAAAAA==

> <PUBCHEM_CACTVS_TAUTO_COUNT>
2

> <PUBCHEM_CACTVS_TPSA>
123

> <PUBCHEM_COMPONENT_COUNT>
1

> <PUBCHEM_COMPOUND_CANONICALIZED>
1

> <PUBCHEM_COMPOUND_CID>
1261960

> <PUBCHEM_COORDINATE_TYPE>
1
5
255

> <PUBCHEM_EXACT_MASS>
452.070989

> <PUBCHEM_HEAVY_ATOM_COUNT>
31

> <PUBCHEM_ISOTOPIC_ATOM_COUNT>
0

> <PUBCHEM_IUPAC_CAS_NAME>
6-chloro-2-(2-pyridinyl)-N-[(4-sulfamoylphenyl)methyl]-4-quinolinecarboxamide

> <PUBCHEM_IUPAC_INCHI>
InChI=1S/C22H17ClN4O3S/c23-15-6-9-19-17(11-15)18(12-21(27-19)20-3-1-2-10-25-20)22(28)26-13-14-4-7-16(8-5-14)31(24,29)30/h1-12H,13H2,(H,26,28)(H2,24,29,30)

> <PUBCHEM_IUPAC_INCHIKEY>
GXOHYVMGAJUGMV-UHFFFAOYSA-N

> <PUBCHEM_IUPAC_NAME>
6-chloro-2-pyridin-2-yl-N-[(4-sulfamoylphenyl)methyl]quinoline-4-carboxamide

> <PUBCHEM_IUPAC_OPENEYE_NAME>
6-chloro-2-(2-pyridyl)-N-[(4-sulfamoylphenyl)methyl]quinoline-4-carboxamide

> <PUBCHEM_IUPAC_SYSTEMATIC_NAME>
6-chloranyl-2-pyridin-2-yl-N-[(4-sulfamoylphenyl)methyl]quinoline-4-carboxamide

> <PUBCHEM_IUPAC_TRADITIONAL_NAME>
6-chloro-2-(2-pyridyl)-N-(4-sulfamoylbenzyl)cinchoninamide

> <PUBCHEM_MOLECULAR_FORMULA>
C22H17ClN4O3S

> <PUBCHEM_MOLECULAR_WEIGHT>
452.91338

> <PUBCHEM_MONOISOTOPIC_WEIGHT>
452.070989

> <PUBCHEM_OPENEYE_CAN_SMILES>
C1=CC=NC(=C1)C2=NC3=C(C=C(C=C3)Cl)C(=C2)C(=O)NCC4=CC=C(C=C4)S(=O)(=O)N

> <PUBCHEM_OPENEYE_ISO_SMILES>
C1=CC=NC(=C1)C2=NC3=C(C=C(C=C3)Cl)C(=C2)C(=O)NCC4=CC=C(C=C4)S(=O)(=O)N

> <PUBCHEM_TOTAL_CHARGE>
0

> <PUBCHEM_XLOGP3_AA>
2.8

$$$$
Written by BCL::WriteToMDL,2079613
MBcorina  10171218483D 1   1.00000     0.00000 
CORINA 3.49 0026  01.06.2011
 49 51  0  0  0  0  0  0  0  0999 V2000
    0.1817    1.4031   -0.3457 S   0  0  0  1  0  2  0  0  0  0  0  0
   -1.9470   -3.1623   -0.8482 O   0  0  0  1  0  2  0  0  0  0  0  0
    2.6731   -2.7822   -0.7514 O   0  0  0  1  0  1  0  0  0  0  0  0
    1.1308    4.0171   -0.0672 O   0  0  0  1  0  1  0  0  0  0  0  0
    6.6714    5.5948   -1.9054 O   0  0  0  1  0  2  0  0  0  0  0  0
    5.3922    3.8227   -1.5140 O   0  0  0  1  0  1  0  0  0  0  0  0
   -0.8674   -1.0761   -0.6114 N   0  0  0  1  0  3  0  0  0  0  0  0
    1.4613   -0.9270   -0.5726 N   0  0  0  1  0  2  0  0  0  0  0  0
    3.3423    3.8404   -0.0627 N   0  0  0  1  0  3  0  0  0  0  0  0
   -2.1666   -0.4015   -0.5549 C   0  0  0  1  0  4  0  0  0  0  0  0
   -2.9526   -0.6621   -1.8517 C   0  0  0  1  0  4  0  0  0  0  0  0
   -3.0131   -0.9808    0.5975 C   0  0  0  1  0  4  0  0  0  0  0  0
   -4.4579   -0.9909    0.0395 C   0  0  0  1  0  4  0  0  0  0  0  0
   -4.2494   -1.3906   -1.4423 C   0  0  0  1  0  4  0  0  0  0  0  0
   -0.8110   -2.4358   -0.7567 C   0  0  0  1  0  3  0  0  0  0  0  0
    0.2799   -0.3470   -0.5246 C   0  0  0  1  0  3  0  0  0  0  0  0
    0.4047   -3.0472   -0.8074 C   0  0  0  1  0  3  0  0  0  0  0  0
    1.5700   -2.2574   -0.7083 C   0  0  0  1  0  3  0  0  0  0  0  0
    1.9438    1.8123   -0.2855 C   0  0  0  1  0  4  0  0  0  0  0  0
    2.1085    3.3023   -0.1307 C   0  0  0  1  0  3  0  0  0  0  0  0
    3.4969    5.2235   -0.0130 C   0  0  0  1  0  3  0  0  0  0  0  0
    4.5853    5.8351   -0.6545 C   0  0  0  1  0  3  0  0  0  0  0  0
    2.5723    6.0048    0.6663 C   0  0  0  1  0  3  0  0  0  0  0  0
    4.7284    7.2236   -0.5974 C   0  0  0  1  0  3  0  0  0  0  0  0
    2.7270    7.3760    0.7135 C   0  0  0  1  0  3  0  0  0  0  0  0
    3.8031    7.9824    0.0863 C   0  0  0  1  0  3  0  0  0  0  0  0
    5.5713    5.0174   -1.3835 C   0  0  0  1  0  3  0  0  0  0  0  0
    7.5992    4.7284   -2.6103 C   0  0  0  1  0  4  0  0  0  0  0  0
   -2.0249    0.6699   -0.4130 H   0  0  0  1  0  1  0  0  0  0  0  0
   -3.1932    0.2828   -2.3389 H   0  0  0  1  0  1  0  0  0  0  0  0
   -2.3674   -1.2905   -2.5232 H   0  0  0  1  0  1  0  0  0  0  0  0
   -2.6894   -1.9937    0.8367 H   0  0  0  1  0  1  0  0  0  0  0  0
   -2.9484   -0.3407    1.4774 H   0  0  0  1  0  1  0  0  0  0  0  0
   -5.0869   -1.0498   -2.0509 H   0  0  0  1  0  1  0  0  0  0  0  0
   -4.1254   -2.4698   -1.5324 H   0  0  0  1  0  1  0  0  0  0  0  0
   -5.0669   -1.7318    0.5575 H   0  0  0  1  0  1  0  0  0  0  0  0
   -4.9073   -0.0005    0.1128 H   0  0  0  1  0  1  0  0  0  0  0  0
    0.4759   -4.1188   -0.9213 H   0  0  0  1  0  1  0  0  0  0  0  0
   -1.7992   -4.1126   -0.9485 H   0  0  0  1  0  1  0  0  0  0  0  0
    2.4057    1.3057    0.5618 H   0  0  0  1  0  1  0  0  0  0  0  0
    2.4239    1.4877   -1.2087 H   0  0  0  1  0  1  0  0  0  0  0  0
    4.1225    3.2643   -0.0483 H   0  0  0  1  0  1  0  0  0  0  0  0
    1.7308    5.5397    1.1581 H   0  0  0  1  0  1  0  0  0  0  0  0
    5.5633    7.7018   -1.0881 H   0  0  0  1  0  1  0  0  0  0  0  0
    2.0047    7.9795    1.2430 H   0  0  0  1  0  1  0  0  0  0  0  0
    3.9151    9.0557    0.1296 H   0  0  0  1  0  1  0  0  0  0  0  0
    7.9664    3.9596   -1.9304 H   0  0  0  1  0  1  0  0  0  0  0  0
    7.0893    4.2570   -3.4504 H   0  0  0  1  0  1  0  0  0  0  0  0
    8.4384    5.3182   -2.9791 H   0  0  0  1  0  1  0  0  0  0  0  0
  1 16  1  0  0  0  0
  1 19  1  0  0  0  0
  2 15  1  0  0  0  0
  2 39  1  0  0  0  0
  3 18  2  0  0  0  0
  4 20  2  0  0  0  0
  5 27  1  0  0  0  0
  5 28  1  0  0  0  0
  6 27  2  0  0  0  0
  7 10  1  0  0  0  0
  7 15  1  0  0  0  0
  7 16  1  0  0  0  0
  8 16  2  0  0  0  0
  8 18  1  0  0  0  0
  9 20  1  0  0  0  0
  9 21  1  0  0  0  0
  9 42  1  0  0  0  0
 10 11  1  0  0  0  0
 10 12  1  0  0  0  0
 10 29  1  0  0  0  0
 11 14  1  0  0  0  0
 11 30  1  0  0  0  0
 11 31  1  0  0  0  0
 12 13  1  0  0  0  0
 12 32  1  0  0  0  0
 12 33  1  0  0  0  0
 13 14  1  0  0  0  0
 13 36  1  0  0  0  0
 13 37  1  0  0  0  0
 14 34  1  0  0  0  0
 14 35  1  0  0  0  0
 15 17  2  0  0  0  0
 17 18  1  0  0  0  0
 17 38  1  0  0  0  0
 19 20  1  0  0  0  0
 19 40  1  0  0  0  0
 19 41  1  0  0  0  0
 21 22  1  0  0  0  0
 21 23  2  0  0  0  0
 22 24  2  0  0  0  0
 22 27  1  0  0  0  0
 23 25  1  0  0  0  0
 23 43  1  0  0  0  0
 24 26  1  0  0  0  0
 24 44  1  0  0  0  0
 25 26  2  0  0  0  0
 25 45  1  0  0  0  0
 26 46  1  0  0  0  0
 28 47  1  0  0  0  0
 28 48  1  0  0  0  0
 28 49  1  0  0  0  0
M  END
> <Activity>
0.13675

> <Mapped(file=504701.csv.activities,property=Cached(PUBCHEM_COMPOUND_CID))>
0.13675

> <PUBCHEM_ATOM_DEF_STEREO_COUNT>
0

> <PUBCHEM_ATOM_UDEF_STEREO_COUNT>
0

> <PUBCHEM_BONDANNOTATIONS>
15  17  8
17  18  8
21  22  8
21  23  8
22  24  8
23  25  8
24  26  8
25  26  8
7  15  8
7  16  8
8  16  8
8  18  8

> <PUBCHEM_BOND_DEF_STEREO_COUNT>
0

> <PUBCHEM_BOND_UDEF_STEREO_COUNT>
0

> <PUBCHEM_CACTVS_COMPLEXITY>
687

> <PUBCHEM_CACTVS_HBOND_ACCEPTOR>
6

> <PUBCHEM_CACTVS_HBOND_DONOR>
2

> <PUBCHEM_CACTVS_ROTATABLE_BOND>
7

> <PUBCHEM_CACTVS_SUBSKEYS>
AAADceB7OABAAAAAAAAAAAAAAAAAAYAAAAAwQAAAAAAAAAABAAAAHgQQCAAADCjF2AazyIPABgioAiXSfACCEAFlIhAJiAEIbMgIJjrAvZmEMYhm1AHI6ceYyCCOAAAAAAACAAAAAAAAAAQAAAAAAAAAAA==

> <PUBCHEM_CACTVS_TAUTO_COUNT>
27

> <PUBCHEM_CACTVS_TPSA>
134

> <PUBCHEM_COMPONENT_COUNT>
1

> <PUBCHEM_COMPOUND_CANONICALIZED>
1

> <PUBCHEM_COMPOUND_CID>
2079613

> <PUBCHEM_COORDINATE_TYPE>
1
5
255

> <PUBCHEM_EXACT_MASS>
403.120192

> <PUBCHEM_HEAVY_ATOM_COUNT>
28

> <PUBCHEM_ISOTOPIC_ATOM_COUNT>
0

> <PUBCHEM_IUPAC_CAS_NAME>
2-[[2-[(1-cyclopentyl-6-hydroxy-4-oxo-2-pyrimidinyl)thio]-1-oxoethyl]amino]benzoic acid methyl ester

> <PUBCHEM_IUPAC_INCHI>
InChI=1S/C19H21N3O5S/c1-27-18(26)13-8-4-5-9-14(13)20-16(24)11-28-19-21-15(23)10-17(25)22(19)12-6-2-3-7-12/h4-5,8-10,12,25H,2-3,6-7,11H2,1H3,(H,20,24)

> <PUBCHEM_IUPAC_INCHIKEY>
KIIZSOSWACMWOK-UHFFFAOYSA-N

> <PUBCHEM_IUPAC_NAME>
methyl 2-[[2-(1-cyclopentyl-6-hydroxy-4-oxopyrimidin-2-yl)sulfanylacetyl]amino]benzoate

> <PUBCHEM_IUPAC_OPENEYE_NAME>
methyl 2-[[2-(1-cyclopentyl-6-hydroxy-4-oxo-pyrimidin-2-yl)sulfanylacetyl]amino]benzoate

> <PUBCHEM_IUPAC_SYSTEMATIC_NAME>
methyl 2-[2-(1-cyclopentyl-6-oxidanyl-4-oxidanylidene-pyrimidin-2-yl)sulfanylethanoylamino]benzoate

> <PUBCHEM_IUPAC_TRADITIONAL_NAME>
2-[[2-[(1-cyclopentyl-6-hydroxy-4-keto-pyrimidin-2-yl)thio]acetyl]amino]benzoic acid methyl ester

> <PUBCHEM_MOLECULAR_FORMULA>
C19H21N3O5S

> <PUBCHEM_MOLECULAR_WEIGHT>
403.45214

> <PUBCHEM_MONOISOTOPIC_WEIGHT>
403.120192

> <PUBCHEM_OPENEYE_CAN_SMILES>
COC(=O)C1=CC=CC=C1NC(=O)CSC2=NC(=O)C=C(N2C3CCCC3)O

> <PUBCHEM_OPENEYE_ISO_SMILES>
COC(=O)C1=CC=CC=C1NC(=O)CSC2=NC(=O)C=C(N2C3CCCC3)O

> <PUBCHEM_TOTAL_CHARGE>
0

> <PUBCHEM_XLOGP3_AA>
2.8

$$$$
Written by BCL::WriteToMDL,2743305
MBcorina  10171218483D 1   1.00000     0.00000 
CORINA 3.49 0026  01.06.2011
 19 19  0  0  0  0  0  0  0  0999 V2000
    2.6967    1.7263   -0.0130 S   0  0  0  1  0  1  0  0  0  0  0  0
   -2.2708    1.8185    0.0217 O   0  0  0  1  0  1  0  0  0  0  0  0
   -0.0178    1.4608    0.0101 N   0  0  0  1  0  3  0  0  0  0  0  0
    0.6557    3.5390    0.0140 N   0  0  0  1  0  3  0  0  0  0  0  0
   -0.7475    3.5200    0.0235 N   0  0  0  1  0  3  0  0  0  0  0  0
    0.0021   -0.0041    0.0020 C   0  0  0  1  0  4  0  0  0  0  0  0
   -0.7002   -0.5305    1.2552 C   0  0  0  1  0  4  0  0  0  0  0  0
   -0.7241   -0.5171   -1.2431 C   0  0  0  1  0  4  0  0  0  0  0  0
    1.0686    2.2552    0.0040 C   0  0  0  1  0  3  0  0  0  0  0  0
   -1.1253    2.2254    0.0189 C   0  0  0  1  0  3  0  0  0  0  0  0
    1.0345   -0.3534   -0.0097 H   0  0  0  1  0  1  0  0  0  0  0  0
   -0.2237   -0.1421   -2.1359 H   0  0  0  1  0  1  0  0  0  0  0  0
   -0.7093   -1.6070   -1.2491 H   0  0  0  1  0  1  0  0  0  0  0  0
   -1.7565   -0.1678   -1.2314 H   0  0  0  1  0  1  0  0  0  0  0  0
   -0.6854   -1.6204    1.2492 H   0  0  0  1  0  1  0  0  0  0  0  0
   -0.1829   -0.1650    2.1423 H   0  0  0  1  0  1  0  0  0  0  0  0
   -1.7327   -0.1812    1.2669 H   0  0  0  1  0  1  0  0  0  0  0  0
    1.2217    4.3268    0.0142 H   0  0  0  1  0  1  0  0  0  0  0  0
   -1.3346    4.2920    0.0322 H   0  0  0  1  0  1  0  0  0  0  0  0
  1  9  2  0  0  0  0
  2 10  2  0  0  0  0
  3  6  1  0  0  0  0
  3  9  1  0  0  0  0
  3 10  1  0  0  0  0
  4  5  1  0  0  0  0
  4  9  1  0  0  0  0
  4 18  1  0  0  0  0
  5 10  1  0  0  0  0
  5 19  1  0  0  0  0
  6  7  1  0  0  0  0
  6  8  1  0  0  0  0
  6 11  1  0  0  0  0
  7 15  1  0  0  0  0
  7 16  1  0  0  0  0
  7 17  1  0  0  0  0
  8 12  1  0  0  0  0
  8 13  1  0  0  0  0
  8 14  1  0  0  0  0
M  END
> <Activity>
7.042

> <Mapped(file=504701.csv.activities,property=Cached(PUBCHEM_COMPOUND_CID))>
7.042

> <PUBCHEM_ATOM_DEF_STEREO_COUNT>
0

> <PUBCHEM_ATOM_UDEF_STEREO_COUNT>
0

> <PUBCHEM_BONDANNOTATIONS>
3  10  8
3  9  8
4  5  8
4  9  8
5  10  8

> <PUBCHEM_BOND_DEF_STEREO_COUNT>
0

> <PUBCHEM_BOND_UDEF_STEREO_COUNT>
0

> <PUBCHEM_CACTVS_COMPLEXITY>
180

> <PUBCHEM_CACTVS_HBOND_ACCEPTOR>
2

> <PUBCHEM_CACTVS_HBOND_DONOR>
2

> <PUBCHEM_CACTVS_ROTATABLE_BOND>
1

> <PUBCHEM_CACTVS_SUBSKEYS>
AAADccBjIABAAAAAAAAAAAAAAAAAAWAAAAAAAAAAAAAAAAAAAAAAHgQYAAAACCjBAAQDAANiAAAMAAAAEAAAAAAAAAsGIAAIAACAAAAAAAAAAAAABwIAAAAAAAAAAAAAAAAAAAAAAAAAAAAAAAAAAAAAAA==

> <PUBCHEM_CACTVS_TAUTO_COUNT>
4

> <PUBCHEM_CACTVS_TPSA>
76.5

> <PUBCHEM_COMPONENT_COUNT>
1

> <PUBCHEM_COMPOUND_CANONICALIZED>
1

> <PUBCHEM_COMPOUND_CID>
2743305

> <PUBCHEM_COORDINATE_TYPE>
1
5
255

> <PUBCHEM_EXACT_MASS>
159.046633

> <PUBCHEM_HEAVY_ATOM_COUNT>
10

> <PUBCHEM_ISOTOPIC_ATOM_COUNT>
0

> <PUBCHEM_IUPAC_CAS_NAME>
4-propan-2-yl-5-sulfanylidene-1,2,4-triazolidin-3-one

> <PUBCHEM_IUPAC_INCHI>
InChI=1S/C5H9N3OS/c1-3(2)8-4(9)6-7-5(8)10/h3H,1-2H3,(H,6,9)(H,7,10)

> <PUBCHEM_IUPAC_INCHIKEY>
PHDLLTVRFGQCDQ-UHFFFAOYSA-N

> <PUBCHEM_IUPAC_NAME>
4-propan-2-yl-5-sulfanylidene-1,2,4-triazolidin-3-one

> <PUBCHEM_IUPAC_OPENEYE_NAME>
4-isopropyl-5-thioxo-1,2,4-triazolidin-3-one

> <PUBCHEM_IUPAC_SYSTEMATIC_NAME>
4-propan-2-yl-5-sulfanylidene-1,2,4-triazolidin-3-one

> <PUBCHEM_IUPAC_TRADITIONAL_NAME>
4-isopropyl-5-thioxo-1,2,4-triazolidin-3-one

> <PUBCHEM_MOLECULAR_FORMULA>
C5H9N3OS

> <PUBCHEM_MOLECULAR_WEIGHT>
159.20946

> <PUBCHEM_MONOISOTOPIC_WEIGHT>
159.046633

> <PUBCHEM_OPENEYE_CAN_SMILES>
CC(C)N1C(=O)NNC1=S

> <PUBCHEM_OPENEYE_ISO_SMILES>
CC(C)N1C(=O)NNC1=S

> <PUBCHEM_TOTAL_CHARGE>
0

> <PUBCHEM_XLOGP3_AA>
0.5

$$$$
Written by BCL::WriteToMDL,2529706
MBcorina  10171218483D 1   1.00000     0.00000 
CORINA 3.49 0026  01.06.2011
 49 52  0  0  0  0  0  0  0  0999 V2000
    2.7597    9.4757    5.4564 Cl  0  0  0  1  0  1  0  0  0  0  0  0
   -0.0284    1.7575   -0.0413 S   0  0  0  1  0  2  0  0  0  0  0  0
    2.3455    5.9756   -0.7668 S   0  0  0  1  0  2  0  0  0  0  0  0
   -0.0446   -4.2075    1.8164 O   0  0  0  1  0  2  0  0  0  0  0  0
   -1.0875   -0.8320   -0.0261 N   0  0  0  1  0  3  0  0  0  0  0  0
    0.7285   -2.0055    0.0114 N   0  0  0  1  0  2  0  0  0  0  0  0
    1.0692   -0.7664    0.0075 N   0  0  0  1  0  2  0  0  0  0  0  0
    2.0585    4.2939    1.0737 N   0  0  0  1  0  2  0  0  0  0  0  0
   -0.5801   -2.1106   -0.0024 C   0  0  0  1  0  3  0  0  0  0  0  0
   -1.3606   -3.3654    0.0066 C   0  0  0  1  0  3  0  0  0  0  0  0
   -2.4989   -0.4399   -0.0481 C   0  0  0  1  0  4  0  0  0  0  0  0
   -0.0006   -0.0041   -0.0189 C   0  0  0  1  0  3  0  0  0  0  0  0
   -1.0578   -4.3762    0.9276 C   0  0  0  1  0  3  0  0  0  0  0  0
    1.7487    2.1003   -0.0169 C   0  0  0  1  0  4  0  0  0  0  0  0
   -2.4067   -3.5469   -0.8983 C   0  0  0  1  0  3  0  0  0  0  0  0
    1.9731    3.5904   -0.0319 C   0  0  0  1  0  3  0  0  0  0  0  0
   -1.7950   -5.5485    0.9281 C   0  0  0  1  0  3  0  0  0  0  0  0
   -3.0332   -0.4075    1.3607 C   0  0  0  1  0  3  0  0  0  0  0  0
   -3.1319   -4.7208   -0.8851 C   0  0  0  1  0  3  0  0  0  0  0  0
    2.2536    5.5752    0.9464 C   0  0  0  1  0  3  0  0  0  0  0  0
   -2.8256   -5.7196    0.0223 C   0  0  0  1  0  3  0  0  0  0  0  0
    2.3785    6.5390    2.0608 C   0  0  0  1  0  3  0  0  0  0  0  0
    2.0976    4.2783   -1.1717 C   0  0  0  1  0  3  0  0  0  0  0  0
    2.5871    7.8932    1.7956 C   0  0  0  1  0  3  0  0  0  0  0  0
    2.2825    6.0989    3.3816 C   0  0  0  1  0  3  0  0  0  0  0  0
   -3.6019    0.6793    1.8207 C   0  0  0  1  0  3  0  0  0  0  0  0
    2.7028    8.7876    2.8393 C   0  0  0  1  0  3  0  0  0  0  0  0
    2.3998    7.0026    4.4171 C   0  0  0  1  0  3  0  0  0  0  0  0
    0.2065   -5.2812    2.7254 C   0  0  0  1  0  4  0  0  0  0  0  0
    2.6124    8.3442    4.1480 C   0  0  0  1  0  3  0  0  0  0  0  0
   -2.5942    0.5494   -0.4957 H   0  0  0  1  0  1  0  0  0  0  0  0
   -3.0672   -1.1609   -0.6357 H   0  0  0  1  0  1  0  0  0  0  0  0
    2.1882    1.6757    0.8857 H   0  0  0  1  0  1  0  0  0  0  0  0
    2.2170    1.6535   -0.8939 H   0  0  0  1  0  1  0  0  0  0  0  0
   -2.6488   -2.7696   -1.6080 H   0  0  0  1  0  1  0  0  0  0  0  0
   -1.5645   -6.3302    1.6367 H   0  0  0  1  0  1  0  0  0  0  0  0
   -2.9473   -1.2802    1.9910 H   0  0  0  1  0  1  0  0  0  0  0  0
   -3.9419   -4.8605   -1.5857 H   0  0  0  1  0  1  0  0  0  0  0  0
   -3.3976   -6.6356    0.0262 H   0  0  0  1  0  1  0  0  0  0  0  0
    2.0536    3.8651   -2.1686 H   0  0  0  1  0  1  0  0  0  0  0  0
    2.6580    8.2401    0.7753 H   0  0  0  1  0  1  0  0  0  0  0  0
    2.1164    5.0528    3.5927 H   0  0  0  1  0  1  0  0  0  0  0  0
   -3.9848    0.7025    2.8302 H   0  0  0  1  0  1  0  0  0  0  0  0
   -3.6878    1.5521    1.1903 H   0  0  0  1  0  1  0  0  0  0  0  0
    2.8646    9.8358    2.6354 H   0  0  0  1  0  1  0  0  0  0  0  0
    2.3258    6.6632    5.4397 H   0  0  0  1  0  1  0  0  0  0  0  0
   -0.6838   -5.4634    3.3273 H   0  0  0  1  0  1  0  0  0  0  0  0
    0.4562   -6.1816    2.1641 H   0  0  0  1  0  1  0  0  0  0  0  0
    1.0386   -5.0175    3.3782 H   0  0  0  1  0  1  0  0  0  0  0  0
  1 30  1  0  0  0  0
  2 12  1  0  0  0  0
  2 14  1  0  0  0  0
  3 20  1  0  0  0  0
  3 23  1  0  0  0  0
  4 13  1  0  0  0  0
  4 29  1  0  0  0  0
  5  9  1  0  0  0  0
  5 11  1  0  0  0  0
  5 12  1  0  0  0  0
  6  7  1  0  0  0  0
  6  9  2  0  0  0  0
  7 12  2  0  0  0  0
  8 16  1  0  0  0  0
  8 20  2  0  0  0  0
  9 10  1  0  0  0  0
 10 13  1  0  0  0  0
 10 15  2  0  0  0  0
 11 18  1  0  0  0  0
 11 31  1  0  0  0  0
 11 32  1  0  0  0  0
 13 17  2  0  0  0  0
 14 16  1  0  0  0  0
 14 33  1  0  0  0  0
 14 34  1  0  0  0  0
 15 19  1  0  0  0  0
 15 35  1  0  0  0  0
 16 23  2  0  0  0  0
 17 21  1  0  0  0  0
 17 36  1  0  0  0  0
 18 26  2  0  0  0  0
 18 37  1  0  0  0  0
 19 21  2  0  0  0  0
 19 38  1  0  0  0  0
 20 22  1  0  0  0  0
 21 39  1  0  0  0  0
 22 24  2  0  0  0  0
 22 25  1  0  0  0  0
 23 40  1  0  0  0  0
 24 27  1  0  0  0  0
 24 41  1  0  0  0  0
 25 28  2  0  0  0  0
 25 42  1  0  0  0  0
 26 43  1  0  0  0  0
 26 44  1  0  0  0  0
 27 30  2  0  0  0  0
 27 45  1  0  0  0  0
 28 30  1  0  0  0  0
 28 46  1  0  0  0  0
 29 47  1  0  0  0  0
 29 48  1  0  0  0  0
 29 49  1  0  0  0  0
M  END
> <Activity>
1.246

> <Mapped(file=504701.csv.activities,property=Cached(PUBCHEM_COMPOUND_CID))>
1.246

> <PUBCHEM_ATOM_DEF_STEREO_COUNT>
0

> <PUBCHEM_ATOM_UDEF_STEREO_COUNT>
0

> <PUBCHEM_BONDANNOTATIONS>
10  13  8
10  15  8
13  17  8
15  19  8
16  23  8
17  21  8
19  21  8
22  24  8
22  25  8
24  27  8
25  28  8
27  30  8
28  30  8
3  20  8
3  23  8
5  12  8
5  9  8
6  7  8
6  9  8
7  12  8
8  16  8
8  20  8

> <PUBCHEM_BOND_DEF_STEREO_COUNT>
0

> <PUBCHEM_BOND_UDEF_STEREO_COUNT>
0

> <PUBCHEM_CACTVS_COMPLEXITY>
551

> <PUBCHEM_CACTVS_HBOND_ACCEPTOR>
3

> <PUBCHEM_CACTVS_HBOND_DONOR>
0

> <PUBCHEM_CACTVS_ROTATABLE_BOND>
8

> <PUBCHEM_CACTVS_SUBSKEYS>
AAADceB7oABkAAAAAAAAAAAAAAAAAWLAAAAwYAAAAAAAAAAB9AAAHgYIAAAADA7F3yazl5cMFAimAyZiZACS+KthL7gdyDQ+LpiMLqKluxuEMChmyBOoqAeQwCAOBAAAAAAIAAAIAAAAABAAAAAAAAAAAA==

> <PUBCHEM_CACTVS_TAUTO_COUNT>
1

> <PUBCHEM_CACTVS_TPSA>
106

> <PUBCHEM_COMPONENT_COUNT>
1

> <PUBCHEM_COMPOUND_CANONICALIZED>
1

> <PUBCHEM_COMPOUND_CID>
2529706

> <PUBCHEM_COORDINATE_TYPE>
1
5
255

> <PUBCHEM_EXACT_MASS>
454.068881

> <PUBCHEM_HEAVY_ATOM_COUNT>
30

> <PUBCHEM_ISOTOPIC_ATOM_COUNT>
0

> <PUBCHEM_IUPAC_CAS_NAME>
2-(4-chlorophenyl)-4-[[[5-(2-methoxyphenyl)-4-prop-2-enyl-1,2,4-triazol-3-yl]thio]methyl]thiazole

> <PUBCHEM_IUPAC_INCHI>
InChI=1S/C22H19ClN4OS2/c1-3-12-27-20(18-6-4-5-7-19(18)28-2)25-26-22(27)30-14-17-13-29-21(24-17)15-8-10-16(23)11-9-15/h3-11,13H,1,12,14H2,2H3

> <PUBCHEM_IUPAC_INCHIKEY>
ZPGIAYXQLTVUBN-UHFFFAOYSA-N

> <PUBCHEM_IUPAC_NAME>
2-(4-chlorophenyl)-4-[[5-(2-methoxyphenyl)-4-prop-2-enyl-1,2,4-triazol-3-yl]sulfanylmethyl]-1,3-thiazole

> <PUBCHEM_IUPAC_OPENEYE_NAME>
4-[[4-allyl-5-(2-methoxyphenyl)-1,2,4-triazol-3-yl]sulfanylmethyl]-2-(4-chlorophenyl)thiazole

> <PUBCHEM_IUPAC_SYSTEMATIC_NAME>
2-(4-chlorophenyl)-4-[[5-(2-methoxyphenyl)-4-prop-2-enyl-1,2,4-triazol-3-yl]sulfanylmethyl]-1,3-thiazole

> <PUBCHEM_IUPAC_TRADITIONAL_NAME>
4-[[[4-allyl-5-(2-methoxyphenyl)-1,2,4-triazol-3-yl]thio]methyl]-2-(4-chlorophenyl)thiazole

> <PUBCHEM_MOLECULAR_FORMULA>
C22H19ClN4OS2

> <PUBCHEM_MOLECULAR_WEIGHT>
454.99546

> <PUBCHEM_MONOISOTOPIC_WEIGHT>
454.068881

> <PUBCHEM_OPENEYE_CAN_SMILES>
COC1=CC=CC=C1C2=NN=C(N2CC=C)SCC3=CSC(=N3)C4=CC=C(C=C4)Cl

> <PUBCHEM_OPENEYE_ISO_SMILES>
COC1=CC=CC=C1C2=NN=C(N2CC=C)SCC3=CSC(=N3)C4=CC=C(C=C4)Cl

> <PUBCHEM_TOTAL_CHARGE>
0

> <PUBCHEM_XLOGP3_AA>
5.5

$$$$
Written by BCL::WriteToMDL,5898520
MBcorina  10171218483D 1   1.00000     0.00000 
CORINA 3.49 0026  01.06.2011
 41 42  0  0  0  0  0  0  0  0999 V2000
   -7.4111    0.2854    0.0718 O   0  0  0  1  0  1  0  0  0  0  0  0
   -0.0162    1.3449    0.0094 O   0  0  0  1  0  2  0  0  0  0  0  0
   -1.0294   -2.0904   -0.0004 O   0  0  0  1  0  1  0  0  0  0  0  0
   -9.2100   -4.0245    0.0626 N   0  0  0  1  0  3  0  0  0  0  0  0
   -3.5334   -1.1888    0.0277 N   0  0  0  1  0  3  0  0  0  0  0  0
   -2.4111   -0.3503    0.0222 N   0  0  0  1  0  3  0  0  0  0  0  0
   -8.1208   -3.1660    0.0575 C   0  0  0  1  0  3  0  0  0  0  0  0
   -9.0000   -5.4743    0.0519 C   0  0  0  1  0  4  0  0  0  0  0  0
  -10.5706   -3.4815    0.0787 C   0  0  0  1  0  4  0  0  0  0  0  0
   -8.3334   -1.8011    0.0678 C   0  0  0  1  0  3  0  0  0  0  0  0
   -6.8250   -3.6994    0.0482 C   0  0  0  1  0  3  0  0  0  0  0  0
   -8.9134   -5.9878    1.4905 C   0  0  0  1  0  4  0  0  0  0  0  0
  -11.0578   -3.2837   -1.3581 C   0  0  0  1  0  4  0  0  0  0  0  0
   -5.8837   -1.4923    0.0476 C   0  0  0  1  0  3  0  0  0  0  0  0
   -7.2405   -0.9264    0.0633 C   0  0  0  1  0  3  0  0  0  0  0  0
   -5.7317   -2.8981    0.0432 C   0  0  0  1  0  3  0  0  0  0  0  0
   -4.7682   -0.6588    0.0421 C   0  0  0  1  0  3  0  0  0  0  0  0
   -1.1728   -0.8819    0.0078 C   0  0  0  1  0  3  0  0  0  0  0  0
    0.0021   -0.0041    0.0020 C   0  0  0  1  0  3  0  0  0  0  0  0
    1.3061   -0.4089   -0.0126 C   0  0  0  1  0  3  0  0  0  0  0  0
    2.0900    0.7554   -0.0138 C   0  0  0  1  0  3  0  0  0  0  0  0
    1.2410    1.8066   -0.0001 C   0  0  0  1  0  3  0  0  0  0  0  0
   -9.8336   -5.9584   -0.4571 H   0  0  0  1  0  1  0  0  0  0  0  0
   -8.0721   -5.7032   -0.4721 H   0  0  0  1  0  1  0  0  0  0  0  0
  -11.2331   -4.1765    0.5946 H   0  0  0  1  0  1  0  0  0  0  0  0
  -10.5732   -2.5233    0.5984 H   0  0  0  1  0  1  0  0  0  0  0  0
   -9.3400   -1.4099    0.0787 H   0  0  0  1  0  1  0  0  0  0  0  0
   -6.6946   -4.7715    0.0449 H   0  0  0  1  0  1  0  0  0  0  0  0
  -10.3953   -2.5887   -1.8740 H   0  0  0  1  0  1  0  0  0  0  0  0
   -8.0799   -5.5037    1.9995 H   0  0  0  1  0  1  0  0  0  0  0  0
   -9.8414   -5.7589    2.0145 H   0  0  0  1  0  1  0  0  0  0  0  0
   -8.7572   -7.0665    1.4825 H   0  0  0  1  0  1  0  0  0  0  0  0
  -11.0551   -4.2419   -1.8778 H   0  0  0  1  0  1  0  0  0  0  0  0
  -12.0701   -2.8797   -1.3462 H   0  0  0  1  0  1  0  0  0  0  0  0
   -4.7435   -3.3338    0.0361 H   0  0  0  1  0  1  0  0  0  0  0  0
   -4.8954    0.4137    0.0494 H   0  0  0  1  0  1  0  0  0  0  0  0
   -3.4192   -2.1521    0.0212 H   0  0  0  1  0  1  0  0  0  0  0  0
   -2.5254    0.6130    0.0288 H   0  0  0  1  0  1  0  0  0  0  0  0
    1.6647   -1.4275   -0.0210 H   0  0  0  1  0  1  0  0  0  0  0  0
    3.1690    0.8024   -0.0242 H   0  0  0  1  0  1  0  0  0  0  0  0
    1.5287    2.8476    0.0024 H   0  0  0  1  0  1  0  0  0  0  0  0
  1 15  2  0  0  0  0
  2 19  1  0  0  0  0
  2 22  1  0  0  0  0
  3 18  2  0  0  0  0
  4  7  1  0  0  0  0
  4  8  1  0  0  0  0
  4  9  1  0  0  0  0
  5  6  1  0  0  0  0
  5 17  1  0  0  0  0
  5 37  1  0  0  0  0
  6 18  1  0  0  0  0
  6 38  1  0  0  0  0
  7 10  2  0  0  0  0
  7 11  1  0  0  0  0
  8 12  1  0  0  0  0
  8 23  1  0  0  0  0
  8 24  1  0  0  0  0
  9 13  1  0  0  0  0
  9 25  1  0  0  0  0
  9 26  1  0  0  0  0
 10 15  1  0  0  0  0
 10 27  1  0  0  0  0
 11 16  2  0  0  0  0
 11 28  1  0  0  0  0
 12 30  1  0  0  0  0
 12 31  1  0  0  0  0
 12 32  1  0  0  0  0
 13 29  1  0  0  0  0
 13 33  1  0  0  0  0
 13 34  1  0  0  0  0
 14 15  1  0  0  0  0
 14 16  1  0  0  0  0
 14 17  2  0  0  0  0
 16 35  1  0  0  0  0
 17 36  1  0  0  0  0
 18 19  1  0  0  0  0
 19 20  2  0  0  0  0
 20 21  1  0  0  0  0
 20 39  1  0  0  0  0
 21 22  2  0  0  0  0
 21 40  1  0  0  0  0
 22 41  1  0  0  0  0
M  END
> <Activity>
2.834

> <Mapped(file=504701.csv.activities,property=Cached(PUBCHEM_COMPOUND_CID))>
2.834

> <PUBCHEM_ATOM_DEF_STEREO_COUNT>
0

> <PUBCHEM_ATOM_UDEF_STEREO_COUNT>
0

> <PUBCHEM_BONDANNOTATIONS>
19  20  8
2  19  8
2  22  8
20  21  8
21  22  8

> <PUBCHEM_BOND_DEF_STEREO_COUNT>
1

> <PUBCHEM_BOND_UDEF_STEREO_COUNT>
0

> <PUBCHEM_CACTVS_COMPLEXITY>
519

> <PUBCHEM_CACTVS_HBOND_ACCEPTOR>
5

> <PUBCHEM_CACTVS_HBOND_DONOR>
2

> <PUBCHEM_CACTVS_ROTATABLE_BOND>
6

> <PUBCHEM_CACTVS_SUBSKEYS>
AAADceB7MAAAAAAAAAAAAAAAAAAAASAAAAAgAAAAAAAAAAABgAAAHgAYAAAADAzhkAYyBINiBECIAq1W0AKCCAAkIgIaqIHODMgOJjKEtR+DGSDkwBGIqcaYFwAAAAAAAAAAAAAAAAAAAAAAAAAAAAAAAA==

> <PUBCHEM_CACTVS_TAUTO_COUNT>
13

> <PUBCHEM_CACTVS_TPSA>
74.6

> <PUBCHEM_COMPONENT_COUNT>
1

> <PUBCHEM_COMPOUND_CANONICALIZED>
1

> <PUBCHEM_COMPOUND_CID>
5898520

> <PUBCHEM_COORDINATE_TYPE>
1
5
255

> <PUBCHEM_EXACT_MASS>
301.142641

> <PUBCHEM_HEAVY_ATOM_COUNT>
22

> <PUBCHEM_ISOTOPIC_ATOM_COUNT>
0

> <PUBCHEM_IUPAC_CAS_NAME>
N'-[(E)-[4-(diethylamino)-6-oxo-1-cyclohexa-2,4-dienylidene]methyl]-2-furancarbohydrazide

> <PUBCHEM_IUPAC_INCHI>
InChI=1S/C16H19N3O3/c1-3-19(4-2)13-8-7-12(14(20)10-13)11-17-18-16(21)15-6-5-9-22-15/h5-11,17H,3-4H2,1-2H3,(H,18,21)/b12-11+

> <PUBCHEM_IUPAC_INCHIKEY>
HFKRDQYDGSXKKC-VAWYXSNFSA-N

> <PUBCHEM_IUPAC_NAME>
N'-[(E)-[4-(diethylamino)-6-oxocyclohexa-2,4-dien-1-ylidene]methyl]furan-2-carbohydrazide

> <PUBCHEM_IUPAC_OPENEYE_NAME>
N'-[(E)-[4-(diethylamino)-6-oxo-cyclohexa-2,4-dien-1-ylidene]methyl]furan-2-carbohydrazide

> <PUBCHEM_IUPAC_SYSTEMATIC_NAME>
N'-[(E)-[4-(diethylamino)-6-oxidanylidene-cyclohexa-2,4-dien-1-ylidene]methyl]furan-2-carbohydrazide

> <PUBCHEM_IUPAC_TRADITIONAL_NAME>
N'-[(E)-[4-(diethylamino)-6-keto-cyclohexa-2,4-dien-1-ylidene]methyl]-2-furohydrazide

> <PUBCHEM_MOLECULAR_FORMULA>
C16H19N3O3

> <PUBCHEM_MOLECULAR_WEIGHT>
301.34036

> <PUBCHEM_MONOISOTOPIC_WEIGHT>
301.142641

> <PUBCHEM_OPENEYE_CAN_SMILES>
CCN(CC)C1=CC(=O)C(=CNNC(=O)C2=CC=CO2)C=C1

> <PUBCHEM_OPENEYE_ISO_SMILES>
CCN(CC)C1=CC(=O)/C(=C/NNC(=O)C2=CC=CO2)/C=C1

> <PUBCHEM_TOTAL_CHARGE>
0

> <PUBCHEM_XLOGP3_AA>
3

$$$$
Written by BCL::WriteToMDL,24816908
MBcorina  10171218483D 1   1.00000     0.00000 
CORINA 3.49 0026  01.06.2011
 51 54  0  0  0  0  0  0  0  0999 V2000
   -1.2889   -6.3006    2.7636 F   0  0  0  1  0  1  0  0  0  0  0  0
   -1.0929    3.2341    0.2379 O   0  0  0  1  0  1  0  0  0  0  0  0
   -5.1430    3.7482    1.5990 O   0  0  0  1  0  1  0  0  0  0  0  0
   -0.0185    1.2928    0.3337 N   0  0  0  1  0  3  0  0  0  0  0  0
    0.7229   -2.1003    1.6841 N   0  0  0  1  0  3  0  0  0  0  0  0
   -6.0017    1.8186    0.8324 N   0  0  0  1  0  3  0  0  0  0  0  0
   -7.3360    3.3202    1.8363 N   0  0  0  1  0  3  0  0  0  0  0  0
    0.6611   -0.6367    1.6639 C   0  0  0  1  0  4  0  0  0  0  0  0
    2.0809   -0.0656    1.6556 C   0  0  0  1  0  4  0  0  0  0  0  0
   -0.0787   -0.1735    0.4050 C   0  0  0  1  0  4  0  0  0  0  0  0
    2.0176    1.4635    1.6676 C   0  0  0  1  0  4  0  0  0  0  0  0
    1.2932    1.9505    0.4088 C   0  0  0  1  0  4  0  0  0  0  0  0
   -1.1447    2.0204    0.1964 C   0  0  0  1  0  3  0  0  0  0  0  0
   -2.4431    1.3423   -0.0046 C   0  0  0  1  0  3  0  0  0  0  0  0
   -0.3427   -2.8371    2.2058 C   0  0  0  1  0  3  0  0  0  0  0  0
   -4.8257    1.2607    0.3175 C   0  0  0  1  0  3  0  0  0  0  0  0
   -3.6120    1.9021    0.5104 C   0  0  0  1  0  3  0  0  0  0  0  0
   -7.3288    1.1857    0.8034 C   0  0  0  1  0  4  0  0  0  0  0  0
   -2.5039    0.1422   -0.7156 C   0  0  0  1  0  3  0  0  0  0  0  0
   -8.2444    2.2161    1.4923 C   0  0  0  1  0  4  0  0  0  0  0  0
   -0.2855   -4.2243    2.2256 C   0  0  0  1  0  3  0  0  0  0  0  0
   -1.4596   -2.1832    2.7113 C   0  0  0  1  0  3  0  0  0  0  0  0
   -6.0960    3.0112    1.4349 C   0  0  0  1  0  3  0  0  0  0  0  0
   -4.8749    0.0641   -0.3870 C   0  0  0  1  0  3  0  0  0  0  0  0
   -3.7169   -0.4883   -0.9021 C   0  0  0  1  0  3  0  0  0  0  0  0
   -1.3427   -4.9508    2.7436 C   0  0  0  1  0  3  0  0  0  0  0  0
   -2.5120   -2.9135    3.2272 C   0  0  0  1  0  3  0  0  0  0  0  0
   -2.4564   -4.2950    3.2411 C   0  0  0  1  0  3  0  0  0  0  0  0
    0.1318   -0.2827    2.5485 H   0  0  0  1  0  1  0  0  0  0  0  0
    2.6176   -0.4138    2.5381 H   0  0  0  1  0  1  0  0  0  0  0  0
    2.6018   -0.4004    0.7585 H   0  0  0  1  0  1  0  0  0  0  0  0
   -1.1192   -0.4946    0.4537 H   0  0  0  1  0  1  0  0  0  0  0  0
    0.3972   -0.6020   -0.4770 H   0  0  0  1  0  1  0  0  0  0  0  0
    1.4753    1.7981    2.5519 H   0  0  0  1  0  1  0  0  0  0  0  0
    3.0291    1.8693    1.6853 H   0  0  0  1  0  1  0  0  0  0  0  0
    1.8810    1.6951   -0.4729 H   0  0  0  1  0  1  0  0  0  0  0  0
    1.1578    3.0308    0.4600 H   0  0  0  1  0  1  0  0  0  0  0  0
    1.5039   -2.5576    1.3351 H   0  0  0  1  0  1  0  0  0  0  0  0
   -3.5717    2.8321    1.0580 H   0  0  0  1  0  1  0  0  0  0  0  0
   -7.6494    1.0159   -0.2245 H   0  0  0  1  0  1  0  0  0  0  0  0
   -7.3185    0.2495    1.3616 H   0  0  0  1  0  1  0  0  0  0  0  0
   -8.6923    1.7947    2.3923 H   0  0  0  1  0  1  0  0  0  0  0  0
   -9.0168    2.5569    0.8029 H   0  0  0  1  0  1  0  0  0  0  0  0
   -1.6016   -0.2923   -1.1198 H   0  0  0  1  0  1  0  0  0  0  0  0
    0.5829   -4.7353    1.8368 H   0  0  0  1  0  1  0  0  0  0  0  0
   -1.5045   -1.1042    2.7011 H   0  0  0  1  0  1  0  0  0  0  0  0
   -5.8214   -0.4342   -0.5360 H   0  0  0  1  0  1  0  0  0  0  0  0
   -7.5931    4.1402    2.2861 H   0  0  0  1  0  1  0  0  0  0  0  0
   -3.7620   -1.4163   -1.4527 H   0  0  0  1  0  1  0  0  0  0  0  0
   -3.3798   -2.4047    3.6203 H   0  0  0  1  0  1  0  0  0  0  0  0
   -3.2813   -4.8636    3.6445 H   0  0  0  1  0  1  0  0  0  0  0  0
  1 26  1  0  0  0  0
  2 13  2  0  0  0  0
  3 23  2  0  0  0  0
  4 10  1  0  0  0  0
  4 12  1  0  0  0  0
  4 13  1  0  0  0  0
  5  8  1  0  0  0  0
  5 15  1  0  0  0  0
  5 38  1  0  0  0  0
  6 16  1  0  0  0  0
  6 18  1  0  0  0  0
  6 23  1  0  0  0  0
  7 20  1  0  0  0  0
  7 23  1  0  0  0  0
  7 48  1  0  0  0  0
  8  9  1  0  0  0  0
  8 10  1  0  0  0  0
  8 29  1  0  0  0  0
  9 11  1  0  0  0  0
  9 30  1  0  0  0  0
  9 31  1  0  0  0  0
 10 32  1  0  0  0  0
 10 33  1  0  0  0  0
 11 12  1  0  0  0  0
 11 34  1  0  0  0  0
 11 35  1  0  0  0  0
 12 36  1  0  0  0  0
 12 37  1  0  0  0  0
 13 14  1  0  0  0  0
 14 17  2  0  0  0  0
 14 19  1  0  0  0  0
 15 21  2  0  0  0  0
 15 22  1  0  0  0  0
 16 17  1  0  0  0  0
 16 24  2  0  0  0  0
 17 39  1  0  0  0  0
 18 20  1  0  0  0  0
 18 40  1  0  0  0  0
 18 41  1  0  0  0  0
 19 25  2  0  0  0  0
 19 44  1  0  0  0  0
 20 42  1  0  0  0  0
 20 43  1  0  0  0  0
 21 26  1  0  0  0  0
 21 45  1  0  0  0  0
 22 27  2  0  0  0  0
 22 46  1  0  0  0  0
 24 25  1  0  0  0  0
 24 47  1  0  0  0  0
 25 49  1  0  0  0  0
 26 28  2  0  0  0  0
 27 28  1  0  0  0  0
 27 50  1  0  0  0  0
 28 51  1  0  0  0  0
M  END
> <Activity>
0.922

> <Mapped(file=504701.csv.activities,property=Cached(PUBCHEM_COMPOUND_CID))>
0.922

> <PUBCHEM_ATOM_DEF_STEREO_COUNT>
0

> <PUBCHEM_ATOM_UDEF_STEREO_COUNT>
1

> <PUBCHEM_BONDANNOTATIONS>
14  17  8
14  19  8
15  21  8
15  22  8
16  17  8
16  24  8
19  25  8
21  26  8
22  27  8
24  25  8
26  28  8
27  28  8
8  5  3

> <PUBCHEM_BOND_DEF_STEREO_COUNT>
0

> <PUBCHEM_BOND_UDEF_STEREO_COUNT>
0

> <PUBCHEM_CACTVS_COMPLEXITY>
575

> <PUBCHEM_CACTVS_HBOND_ACCEPTOR>
4

> <PUBCHEM_CACTVS_HBOND_DONOR>
2

> <PUBCHEM_CACTVS_ROTATABLE_BOND>
4

> <PUBCHEM_CACTVS_SUBSKEYS>
AAADceB7sQAAAAAAAAAAAAAAAAAAAWAAAAA8YIAAAAAAAAABQAAAHwAQAAAADCjBmAwxwIPAAACIAiVSUACCAAAlAgAIiIEIZMiIYDLAlZGUIQholgLIyacciACOAAAAQAAAAAAAAACAAAAAAAAAAAAAAA==

> <PUBCHEM_CACTVS_TAUTO_COUNT>
2

> <PUBCHEM_CACTVS_TPSA>
64.7

> <PUBCHEM_COMPONENT_COUNT>
1

> <PUBCHEM_COMPOUND_CANONICALIZED>
1

> <PUBCHEM_COMPOUND_CID>
24816908

> <PUBCHEM_COORDINATE_TYPE>
1
5
255

> <PUBCHEM_EXACT_MASS>
382.180504

> <PUBCHEM_HEAVY_ATOM_COUNT>
28

> <PUBCHEM_ISOTOPIC_ATOM_COUNT>
0

> <PUBCHEM_IUPAC_CAS_NAME>
1-[3-[[3-(3-fluoroanilino)-1-piperidinyl]-oxomethyl]phenyl]-2-imidazolidinone

> <PUBCHEM_IUPAC_INCHI>
InChI=1S/C21H23FN4O2/c22-16-5-2-6-17(13-16)24-18-7-3-10-25(14-18)20(27)15-4-1-8-19(12-15)26-11-9-23-21(26)28/h1-2,4-6,8,12-13,18,24H,3,7,9-11,14H2,(H,23,28)

> <PUBCHEM_IUPAC_INCHIKEY>
OHNOFYIPVVFZMX-UHFFFAOYSA-N

> <PUBCHEM_IUPAC_NAME>
1-[3-[3-(3-fluoroanilino)piperidine-1-carbonyl]phenyl]imidazolidin-2-one

> <PUBCHEM_IUPAC_OPENEYE_NAME>
1-[3-[3-(3-fluoroanilino)piperidine-1-carbonyl]phenyl]imidazolidin-2-one

> <PUBCHEM_IUPAC_SYSTEMATIC_NAME>
1-[3-[3-[(3-fluorophenyl)amino]piperidin-1-yl]carbonylphenyl]imidazolidin-2-one

> <PUBCHEM_IUPAC_TRADITIONAL_NAME>
1-[3-[3-(3-fluoroanilino)piperidine-1-carbonyl]phenyl]-2-imidazolidinone

> <PUBCHEM_MOLECULAR_FORMULA>
C21H23FN4O2

> <PUBCHEM_MOLECULAR_WEIGHT>
382.431323

> <PUBCHEM_MONOISOTOPIC_WEIGHT>
382.180504

> <PUBCHEM_OPENEYE_CAN_SMILES>
C1CC(CN(C1)C(=O)C2=CC(=CC=C2)N3CCNC3=O)NC4=CC(=CC=C4)F

> <PUBCHEM_OPENEYE_ISO_SMILES>
C1CC(CN(C1)C(=O)C2=CC(=CC=C2)N3CCNC3=O)NC4=CC(=CC=C4)F

> <PUBCHEM_TOTAL_CHARGE>
0

> <PUBCHEM_XLOGP3_AA>
2.7

$$$$
Written by BCL::WriteToMDL,6869836
MBcorina  10171218483D 1   1.00000     0.00000 
CORINA 3.49 0026  01.06.2011
 36 39  0  0  0  0  0  0  0  0999 V2000
   -0.0361    1.7601    0.2345 S   0  0  0  1  0  2  0  0  0  0  0  0
   -2.0346   -3.4247   -0.7145 S   0  0  0  1  0  1  0  0  0  0  0  0
   -3.4824   -1.1597   -0.2210 N   0  0  0  1  0  3  0  0  0  0  0  0
   -4.5136    1.6826    0.4177 N   0  0  0  1  0  3  0  0  0  0  0  0
   -5.3647    2.7718    0.6429 N   0  0  0  1  0  2  0  0  0  0  0  0
   -5.5562   -1.7930   -0.4640 N   0  0  0  1  0  2  0  0  0  0  0  0
   -4.7157   -2.8907   -0.6939 N   0  0  0  1  0  3  0  0  0  0  0  0
   -2.3718   -0.3415    0.0234 N   0  0  0  1  0  2  0  0  0  0  0  0
   -5.2885    0.5980    0.1223 C   0  0  0  1  0  3  0  0  0  0  0  0
   -4.8057   -0.7616   -0.1834 C   0  0  0  1  0  3  0  0  0  0  0  0
   -6.6087    2.3675    0.4909 C   0  0  0  1  0  3  0  0  0  0  0  0
   -6.5931    1.0022    0.1626 C   0  0  0  1  0  3  0  0  0  0  0  0
   -7.8209    3.2109    0.6418 C   0  0  0  1  0  3  0  0  0  0  0  0
   -3.4441   -2.4690   -0.5390 C   0  0  0  1  0  3  0  0  0  0  0  0
   -7.6980    4.5587    0.9723 C   0  0  0  1  0  3  0  0  0  0  0  0
   -9.0852    2.6588    0.4479 C   0  0  0  1  0  3  0  0  0  0  0  0
   -8.8285    5.3383    1.1115 C   0  0  0  1  0  3  0  0  0  0  0  0
  -10.2090    3.4475    0.5895 C   0  0  0  1  0  3  0  0  0  0  0  0
  -10.0816    4.7837    0.9238 C   0  0  0  1  0  3  0  0  0  0  0  0
   -1.1835   -0.8653    0.1069 C   0  0  0  1  0  3  0  0  0  0  0  0
   -0.0061    0.0016    0.2108 C   0  0  0  1  0  3  0  0  0  0  0  0
    1.2847   -0.4288    0.3042 C   0  0  0  1  0  3  0  0  0  0  0  0
    2.2163    0.5813    0.3911 C   0  0  0  1  0  3  0  0  0  0  0  0
    1.7157    1.8213    0.3708 C   0  0  0  1  0  3  0  0  0  0  0  0
   -7.4575    0.3827   -0.0252 H   0  0  0  1  0  1  0  0  0  0  0  0
   -3.5446    1.6971    0.4600 H   0  0  0  1  0  1  0  0  0  0  0  0
   -6.7201    4.9926    1.1198 H   0  0  0  1  0  1  0  0  0  0  0  0
   -9.1857    1.6157    0.1868 H   0  0  0  1  0  1  0  0  0  0  0  0
   -4.9974   -3.7903   -0.9227 H   0  0  0  1  0  1  0  0  0  0  0  0
   -8.7344    6.3833    1.3677 H   0  0  0  1  0  1  0  0  0  0  0  0
  -11.1896    3.0206    0.4394 H   0  0  0  1  0  1  0  0  0  0  0  0
  -10.9635    5.3972    1.0340 H   0  0  0  1  0  1  0  0  0  0  0  0
   -1.0648   -1.9387    0.0998 H   0  0  0  1  0  1  0  0  0  0  0  0
    1.5536   -1.4747    0.3098 H   0  0  0  1  0  1  0  0  0  0  0  0
    3.2756    0.3861    0.4705 H   0  0  0  1  0  1  0  0  0  0  0  0
    2.3014    2.7269    0.4292 H   0  0  0  1  0  1  0  0  0  0  0  0
  1 21  1  0  0  0  0
  1 24  1  0  0  0  0
  2 14  2  0  0  0  0
  3  8  1  0  0  0  0
  3 10  1  0  0  0  0
  3 14  1  0  0  0  0
  4  5  1  0  0  0  0
  4  9  1  0  0  0  0
  4 26  1  0  0  0  0
  5 11  2  0  0  0  0
  6  7  1  0  0  0  0
  6 10  2  0  0  0  0
  7 14  1  0  0  0  0
  7 29  1  0  0  0  0
  8 20  2  0  0  0  0
  9 10  1  0  0  0  0
  9 12  2  0  0  0  0
 11 12  1  0  0  0  0
 11 13  1  0  0  0  0
 12 25  1  0  0  0  0
 13 15  2  0  0  0  0
 13 16  1  0  0  0  0
 15 17  1  0  0  0  0
 15 27  1  0  0  0  0
 16 18  2  0  0  0  0
 16 28  1  0  0  0  0
 17 19  2  0  0  0  0
 17 30  1  0  0  0  0
 18 19  1  0  0  0  0
 18 31  1  0  0  0  0
 19 32  1  0  0  0  0
 20 21  1  0  0  0  0
 20 33  1  0  0  0  0
 21 22  2  0  0  0  0
 22 23  1  0  0  0  0
 22 34  1  0  0  0  0
 23 24  2  0  0  0  0
 23 35  1  0  0  0  0
 24 36  1  0  0  0  0
M  END
> <Activity>
8.079

> <Mapped(file=504701.csv.activities,property=Cached(PUBCHEM_COMPOUND_CID))>
8.079

> <PUBCHEM_ATOM_DEF_STEREO_COUNT>
0

> <PUBCHEM_ATOM_UDEF_STEREO_COUNT>
0

> <PUBCHEM_BONDANNOTATIONS>
1  21  8
1  24  8
11  12  8
13  15  8
13  16  8
15  17  8
16  18  8
17  19  8
18  19  8
21  22  8
22  23  8
23  24  8
3  10  8
3  14  8
4  5  8
4  9  8
5  11  8
6  10  8
6  7  8
7  14  8
9  12  8

> <PUBCHEM_BOND_DEF_STEREO_COUNT>
1

> <PUBCHEM_BOND_UDEF_STEREO_COUNT>
0

> <PUBCHEM_CACTVS_COMPLEXITY>
531

> <PUBCHEM_CACTVS_HBOND_ACCEPTOR>
5

> <PUBCHEM_CACTVS_HBOND_DONOR>
2

> <PUBCHEM_CACTVS_ROTATABLE_BOND>
4

> <PUBCHEM_CACTVS_SUBSKEYS>
AAADccB7gABgAAAAAAAAAAAAAAAAAWJEAAAwAAAAAAAAAAAB8AAAHAQYAAAADAjFXgSxgZJjAAimAzZjYACTBIAgChlduTgwZJiIYKKg0dGUpAhwmAIoyAcQgIAOAAAAAAAAAAAAAAAAAAAAAAAAAAAAAA==

> <PUBCHEM_CACTVS_TAUTO_COUNT>
9

> <PUBCHEM_CACTVS_TPSA>
129

> <PUBCHEM_COMPONENT_COUNT>
1

> <PUBCHEM_COMPOUND_CANONICALIZED>
1

> <PUBCHEM_COMPOUND_CID>
6869836

> <PUBCHEM_COORDINATE_TYPE>
1
5
255

> <PUBCHEM_EXACT_MASS>
352.056486

> <PUBCHEM_HEAVY_ATOM_COUNT>
24

> <PUBCHEM_ISOTOPIC_ATOM_COUNT>
0

> <PUBCHEM_IUPAC_CAS_NAME>
3-(3-phenyl-1H-pyrazol-5-yl)-4-[(E)-thiophen-2-ylmethylideneamino]-1H-1,2,4-triazole-5-thione

> <PUBCHEM_IUPAC_INCHI>
InChI=1S/C16H12N6S2/c23-16-21-20-15(22(16)17-10-12-7-4-8-24-12)14-9-13(18-19-14)11-5-2-1-3-6-11/h1-10H,(H,18,19)(H,21,23)/b17-10+

> <PUBCHEM_IUPAC_INCHIKEY>
VKVKLBBLGMJVQO-LICLKQGHSA-N

> <PUBCHEM_IUPAC_NAME>
3-(3-phenyl-1H-pyrazol-5-yl)-4-[(E)-thiophen-2-ylmethylideneamino]-1H-1,2,4-triazole-5-thione

> <PUBCHEM_IUPAC_OPENEYE_NAME>
3-(3-phenyl-1H-pyrazol-5-yl)-4-[(E)-2-thienylmethyleneamino]-1H-1,2,4-triazole-5-thione

> <PUBCHEM_IUPAC_SYSTEMATIC_NAME>
3-(3-phenyl-1H-pyrazol-5-yl)-4-[(E)-thiophen-2-ylmethylideneamino]-1H-1,2,4-triazole-5-thione

> <PUBCHEM_IUPAC_TRADITIONAL_NAME>
3-(3-phenyl-1H-pyrazol-5-yl)-4-[(E)-2-thenylideneamino]-1H-1,2,4-triazole-5-thione

> <PUBCHEM_MOLECULAR_FORMULA>
C16H12N6S2

> <PUBCHEM_MOLECULAR_WEIGHT>
352.43668

> <PUBCHEM_MONOISOTOPIC_WEIGHT>
352.056486

> <PUBCHEM_OPENEYE_CAN_SMILES>
C1=CC=C(C=C1)C2=NNC(=C2)C3=NNC(=S)N3N=CC4=CC=CS4

> <PUBCHEM_OPENEYE_ISO_SMILES>
C1=CC=C(C=C1)C2=NNC(=C2)C3=NNC(=S)N3/N=C/C4=CC=CS4

> <PUBCHEM_TOTAL_CHARGE>
0

> <PUBCHEM_XLOGP3_AA>
3.6

$$$$
Written by BCL::WriteToMDL,663049
MBcorina  10171218483D 1   1.00000     0.00000 
CORINA 3.49 0026  01.06.2011
 54 58  0  0  0  0  0  0  0  0999 V2000
   -0.1457    1.8569   -0.0719 S   0  0  0  1  0  2  0  0  0  0  0  0
   -6.4536   -1.6351   -0.9282 O   0  0  0  1  0  2  0  0  0  0  0  0
   -2.1324   -4.3946    1.0024 O   0  0  0  1  0  2  0  0  0  0  0  0
   -2.4070    0.2251    0.1155 O   0  0  0  1  0  1  0  0  0  0  0  0
   -1.6400   -1.8540    0.0078 N   0  0  0  1  0  3  0  0  0  0  0  0
    2.1141    3.4929   -0.2590 N   0  0  0  1  0  3  0  0  0  0  0  0
    2.5543    1.3816   -0.3354 N   0  0  0  1  0  2  0  0  0  0  0  0
    3.6752    2.0041   -0.4223 N   0  0  0  1  0  2  0  0  0  0  0  0
    4.1539    5.6381   -0.4126 N   0  0  0  1  0  2  0  0  0  0  0  0
    6.7687    4.9537   -0.6602 N   0  0  0  1  0  2  0  0  0  0  0  0
   -5.5009   -3.4304    0.0029 C   0  0  0  1  0  3  0  0  0  0  0  0
   -6.9489   -3.6702   -0.1481 C   0  0  0  1  0  3  0  0  0  0  0  0
   -5.2741   -2.1438   -0.5054 C   0  0  0  1  0  3  0  0  0  0  0  0
   -7.4677   -2.5069   -0.7342 C   0  0  0  1  0  3  0  0  0  0  0  0
   -4.4460   -4.1848    0.5083 C   0  0  0  1  0  3  0  0  0  0  0  0
   -2.9377   -2.3808    0.0048 C   0  0  0  1  0  3  0  0  0  0  0  0
   -3.9846   -1.6279   -0.4992 C   0  0  0  1  0  3  0  0  0  0  0  0
   -3.1671   -3.6619    0.5091 C   0  0  0  1  0  3  0  0  0  0  0  0
   -7.7885   -4.7352    0.1591 C   0  0  0  1  0  3  0  0  0  0  0  0
   -8.8287   -2.4336   -1.0033 C   0  0  0  1  0  3  0  0  0  0  0  0
   -9.1374   -4.6438   -0.1152 C   0  0  0  1  0  3  0  0  0  0  0  0
   -9.6529   -3.4960   -0.6950 C   0  0  0  1  0  3  0  0  0  0  0  0
   -1.4547   -0.5190    0.0126 C   0  0  0  1  0  3  0  0  0  0  0  0
   -0.0643    0.0491   -0.1099 C   0  0  0  1  0  4  0  0  0  0  0  0
    1.5663    2.2436   -0.2279 C   0  0  0  1  0  3  0  0  0  0  0  0
    1.4059    4.7723   -0.1705 C   0  0  0  1  0  4  0  0  0  0  0  0
    3.4713    3.3008   -0.3846 C   0  0  0  1  0  3  0  0  0  0  0  0
    4.5038    4.3545   -0.4629 C   0  0  0  1  0  3  0  0  0  0  0  0
   -2.4406   -5.6969    1.5035 C   0  0  0  1  0  4  0  0  0  0  0  0
    1.2965    5.1871    1.2741 C   0  0  0  1  0  3  0  0  0  0  0  0
    5.8517    4.0080   -0.5904 C   0  0  0  1  0  3  0  0  0  0  0  0
    1.7408    6.3593    1.6545 C   0  0  0  1  0  3  0  0  0  0  0  0
    5.0808    6.5757   -0.4834 C   0  0  0  1  0  3  0  0  0  0  0  0
    6.4142    6.2271   -0.6097 C   0  0  0  1  0  3  0  0  0  0  0  0
   -4.6266   -5.1754    0.8989 H   0  0  0  1  0  1  0  0  0  0  0  0
   -3.7982   -0.6379   -0.8886 H   0  0  0  1  0  1  0  0  0  0  0  0
   -7.3862   -5.6303    0.6102 H   0  0  0  1  0  1  0  0  0  0  0  0
   -9.2421   -1.5436   -1.4542 H   0  0  0  1  0  1  0  0  0  0  0  0
   -0.8746   -2.4499    0.0063 H   0  0  0  1  0  1  0  0  0  0  0  0
   -9.7927   -5.4689    0.1220 H   0  0  0  1  0  1  0  0  0  0  0  0
  -10.7100   -3.4321   -0.9069 H   0  0  0  1  0  1  0  0  0  0  0  0
    0.3790   -0.2749   -1.0515 H   0  0  0  1  0  1  0  0  0  0  0  0
    0.5472   -0.3046    0.7202 H   0  0  0  1  0  1  0  0  0  0  0  0
    1.9565    5.5316   -0.7259 H   0  0  0  1  0  1  0  0  0  0  0  0
    0.4074    4.6649   -0.5943 H   0  0  0  1  0  1  0  0  0  0  0  0
   -1.5288   -6.1720    1.8655 H   0  0  0  1  0  1  0  0  0  0  0  0
   -3.1554   -5.6115    2.3219 H   0  0  0  1  0  1  0  0  0  0  0  0
   -2.8726   -6.3005    0.7053 H   0  0  0  1  0  1  0  0  0  0  0  0
    0.8518    4.5180    1.9959 H   0  0  0  1  0  1  0  0  0  0  0  0
    6.1418    2.9686   -0.6321 H   0  0  0  1  0  1  0  0  0  0  0  0
    2.1855    7.0284    0.9327 H   0  0  0  1  0  1  0  0  0  0  0  0
    1.6623    6.6566    2.6898 H   0  0  0  1  0  1  0  0  0  0  0  0
    4.7978    7.6172   -0.4428 H   0  0  0  1  0  1  0  0  0  0  0  0
    7.1684    6.9979   -0.6668 H   0  0  0  1  0  1  0  0  0  0  0  0
  1 24  1  0  0  0  0
  1 25  1  0  0  0  0
  2 13  1  0  0  0  0
  2 14  1  0  0  0  0
  3 18  1  0  0  0  0
  3 29  1  0  0  0  0
  4 23  2  0  0  0  0
  5 16  1  0  0  0  0
  5 23  1  0  0  0  0
  5 39  1  0  0  0  0
  6 25  1  0  0  0  0
  6 26  1  0  0  0  0
  6 27  1  0  0  0  0
  7  8  1  0  0  0  0
  7 25  2  0  0  0  0
  8 27  2  0  0  0  0
  9 28  2  0  0  0  0
  9 33  1  0  0  0  0
 10 31  2  0  0  0  0
 10 34  1  0  0  0  0
 11 12  1  0  0  0  0
 11 13  1  0  0  0  0
 11 15  2  0  0  0  0
 12 14  1  0  0  0  0
 12 19  2  0  0  0  0
 13 17  2  0  0  0  0
 14 20  2  0  0  0  0
 15 18  1  0  0  0  0
 15 35  1  0  0  0  0
 16 17  1  0  0  0  0
 16 18  2  0  0  0  0
 17 36  1  0  0  0  0
 19 21  1  0  0  0  0
 19 37  1  0  0  0  0
 20 22  1  0  0  0  0
 20 38  1  0  0  0  0
 21 22  2  0  0  0  0
 21 40  1  0  0  0  0
 22 41  1  0  0  0  0
 23 24  1  0  0  0  0
 24 42  1  0  0  0  0
 24 43  1  0  0  0  0
 26 30  1  0  0  0  0
 26 44  1  0  0  0  0
 26 45  1  0  0  0  0
 27 28  1  0  0  0  0
 28 31  1  0  0  0  0
 29 46  1  0  0  0  0
 29 47  1  0  0  0  0
 29 48  1  0  0  0  0
 30 32  2  0  0  0  0
 30 49  1  0  0  0  0
 31 50  1  0  0  0  0
 32 51  1  0  0  0  0
 32 52  1  0  0  0  0
 33 34  2  0  0  0  0
 33 53  1  0  0  0  0
 34 54  1  0  0  0  0
M  END
> <Activity>
0.33933

> <Mapped(file=504701.csv.activities,property=Cached(PUBCHEM_COMPOUND_CID))>
0.33933

> <PUBCHEM_ATOM_DEF_STEREO_COUNT>
0

> <PUBCHEM_ATOM_UDEF_STEREO_COUNT>
0

> <PUBCHEM_BONDANNOTATIONS>
10  31  8
10  34  8
11  12  8
11  13  8
11  15  8
12  14  8
12  19  8
13  17  8
14  20  8
15  18  8
16  17  8
16  18  8
19  21  8
2  13  8
2  14  8
20  22  8
21  22  8
28  31  8
33  34  8
6  25  8
6  27  8
7  25  8
7  8  8
8  27  8
9  28  8
9  33  8

> <PUBCHEM_BOND_DEF_STEREO_COUNT>
0

> <PUBCHEM_BOND_UDEF_STEREO_COUNT>
0

> <PUBCHEM_CACTVS_COMPLEXITY>
716

> <PUBCHEM_CACTVS_HBOND_ACCEPTOR>
6

> <PUBCHEM_CACTVS_HBOND_DONOR>
1

> <PUBCHEM_CACTVS_ROTATABLE_BOND>
8

> <PUBCHEM_CACTVS_SUBSKEYS>
AAADceB7sABAAAAAAAAAAAAAAAAAAWJAAAA8YIAAAAAAAEgB/gAAHgQYAAAADAzF3wa/1tfMFEiqA7d3dACS2C91MrAd2CE/fNiObvrE/ZuXOajm3BvY6cfa/f/eiQABAgAIEAASAAIEABAgAAAAAAAAAA==

> <PUBCHEM_CACTVS_TAUTO_COUNT>
3

> <PUBCHEM_CACTVS_TPSA>
133

> <PUBCHEM_COMPONENT_COUNT>
1

> <PUBCHEM_COMPOUND_CANONICALIZED>
1

> <PUBCHEM_COMPOUND_CID>
663049

> <PUBCHEM_COORDINATE_TYPE>
1
5
255

> <PUBCHEM_EXACT_MASS>
472.13176

> <PUBCHEM_HEAVY_ATOM_COUNT>
34

> <PUBCHEM_ISOTOPIC_ATOM_COUNT>
0

> <PUBCHEM_IUPAC_CAS_NAME>
N-(2-methoxy-3-dibenzofuranyl)-2-[[4-prop-2-enyl-5-(2-pyrazinyl)-1,2,4-triazol-3-yl]thio]acetamide

> <PUBCHEM_IUPAC_INCHI>
InChI=1S/C24H20N6O3S/c1-3-10-30-23(18-13-25-8-9-26-18)28-29-24(30)34-14-22(31)27-17-12-20-16(11-21(17)32-2)15-6-4-5-7-19(15)33-20/h3-9,11-13H,1,10,14H2,2H3,(H,27,31)

> <PUBCHEM_IUPAC_INCHIKEY>
HDCVYPKOQQHUOW-UHFFFAOYSA-N

> <PUBCHEM_IUPAC_NAME>
N-(2-methoxydibenzofuran-3-yl)-2-[(4-prop-2-enyl-5-pyrazin-2-yl-1,2,4-triazol-3-yl)sulfanyl]acetamide

> <PUBCHEM_IUPAC_OPENEYE_NAME>
2-[(4-allyl-5-pyrazin-2-yl-1,2,4-triazol-3-yl)sulfanyl]-N-(2-methoxydibenzofuran-3-yl)acetamide

> <PUBCHEM_IUPAC_SYSTEMATIC_NAME>
N-(2-methoxydibenzofuran-3-yl)-2-[(4-prop-2-enyl-5-pyrazin-2-yl-1,2,4-triazol-3-yl)sulfanyl]ethanamide

> <PUBCHEM_IUPAC_TRADITIONAL_NAME>
2-[(4-allyl-5-pyrazin-2-yl-1,2,4-triazol-3-yl)thio]-N-(2-methoxydibenzofuran-3-yl)acetamide

> <PUBCHEM_MOLECULAR_FORMULA>
C24H20N6O3S

> <PUBCHEM_MOLECULAR_WEIGHT>
472.519

> <PUBCHEM_MONOISOTOPIC_WEIGHT>
472.13176

> <PUBCHEM_OPENEYE_CAN_SMILES>
COC1=C(C=C2C(=C1)C3=CC=CC=C3O2)NC(=O)CSC4=NN=C(N4CC=C)C5=NC=CN=C5

> <PUBCHEM_OPENEYE_ISO_SMILES>
COC1=C(C=C2C(=C1)C3=CC=CC=C3O2)NC(=O)CSC4=NN=C(N4CC=C)C5=NC=CN=C5

> <PUBCHEM_TOTAL_CHARGE>
0

> <PUBCHEM_XLOGP3_AA>
3.2

$$$$
Written by BCL::WriteToMDL,738234
MBcorina  10171218483D 1   1.00000     0.00000 
CORINA 3.49 0026  01.06.2011
 33 35  0  0  0  0  0  0  0  0999 V2000
   -0.2675    1.8444   -0.1314 S   0  0  0  1  0  2  0  0  0  0  0  0
    0.7674   -2.6878    0.1119 S   0  0  0  1  0  1  0  0  0  0  0  0
   -3.9990   -5.0314   -0.2716 O   0  0  0  1  0  2  0  0  0  0  0  0
   -0.4396   -4.7427   -0.0111 O   0  0  0  1  0  1  0  0  0  0  0  0
    1.1811   -0.1955    0.0658 N   0  0  0  1  0  2  0  0  0  0  0  0
   -1.1201   -0.8220    0.0090 N   0  0  0  1  0  3  0  0  0  0  0  0
   -1.8587   -3.0346   -0.0830 N   0  0  0  1  0  3  0  0  0  0  0  0
    3.5048    0.6160    0.1115 C   0  0  0  1  0  3  0  0  0  0  0  0
    2.0372    0.8165    0.0356 C   0  0  0  1  0  3  0  0  0  0  0  0
   -0.0799    0.0977   -0.0078 C   0  0  0  1  0  3  0  0  0  0  0  0
    4.0304   -0.6705    0.2192 C   0  0  0  1  0  3  0  0  0  0  0  0
    4.3638    1.7129    0.0695 C   0  0  0  1  0  3  0  0  0  0  0  0
    1.4830    2.0375   -0.0689 C   0  0  0  1  0  3  0  0  0  0  0  0
    5.3968   -0.8511    0.2894 C   0  0  0  1  0  3  0  0  0  0  0  0
    5.7285    1.5203    0.1405 C   0  0  0  1  0  3  0  0  0  0  0  0
    6.2443    0.2417    0.2536 C   0  0  0  1  0  3  0  0  0  0  0  0
   -2.6851   -5.3250   -0.1828 C   0  0  0  1  0  3  0  0  0  0  0  0
   -0.8520   -2.1428    0.0050 C   0  0  0  1  0  3  0  0  0  0  0  0
   -1.5905   -4.3554   -0.0870 C   0  0  0  1  0  3  0  0  0  0  0  0
   -2.5542   -6.6848   -0.1970 C   0  0  0  1  0  3  0  0  0  0  0  0
   -3.8500   -7.2137   -0.2988 C   0  0  0  1  0  3  0  0  0  0  0  0
   -4.7046   -6.1675   -0.3418 C   0  0  0  1  0  3  0  0  0  0  0  0
    3.3696   -1.5243    0.2479 H   0  0  0  1  0  1  0  0  0  0  0  0
    3.9622    2.7115   -0.0187 H   0  0  0  1  0  1  0  0  0  0  0  0
    2.0184    2.9746   -0.1082 H   0  0  0  1  0  1  0  0  0  0  0  0
   -2.0398   -0.5139    0.0237 H   0  0  0  1  0  1  0  0  0  0  0  0
    5.8052   -1.8474    0.3729 H   0  0  0  1  0  1  0  0  0  0  0  0
    6.3951    2.3694    0.1082 H   0  0  0  1  0  1  0  0  0  0  0  0
    7.3129    0.0957    0.3095 H   0  0  0  1  0  1  0  0  0  0  0  0
   -2.7762   -2.7258   -0.1436 H   0  0  0  1  0  1  0  0  0  0  0  0
   -1.6321   -7.2443   -0.1411 H   0  0  0  1  0  1  0  0  0  0  0  0
   -4.1146   -8.2601   -0.3364 H   0  0  0  1  0  1  0  0  0  0  0  0
   -5.7796   -6.2364   -0.4195 H   0  0  0  1  0  1  0  0  0  0  0  0
  1 10  1  0  0  0  0
  1 13  1  0  0  0  0
  2 18  2  0  0  0  0
  3 17  1  0  0  0  0
  3 22  1  0  0  0  0
  4 19  2  0  0  0  0
  5  9  1  0  0  0  0
  5 10  2  0  0  0  0
  6 10  1  0  0  0  0
  6 18  1  0  0  0  0
  6 26  1  0  0  0  0
  7 18  1  0  0  0  0
  7 19  1  0  0  0  0
  7 30  1  0  0  0  0
  8  9  1  0  0  0  0
  8 11  2  0  0  0  0
  8 12  1  0  0  0  0
  9 13  2  0  0  0  0
 11 14  1  0  0  0  0
 11 23  1  0  0  0  0
 12 15  2  0  0  0  0
 12 24  1  0  0  0  0
 13 25  1  0  0  0  0
 14 16  2  0  0  0  0
 14 27  1  0  0  0  0
 15 16  1  0  0  0  0
 15 28  1  0  0  0  0
 16 29  1  0  0  0  0
 17 19  1  0  0  0  0
 17 20  2  0  0  0  0
 20 21  1  0  0  0  0
 20 31  1  0  0  0  0
 21 22  2  0  0  0  0
 21 32  1  0  0  0  0
 22 33  1  0  0  0  0
M  END
> <Activity>
7.375

> <Mapped(file=504701.csv.activities,property=Cached(PUBCHEM_COMPOUND_CID))>
7.375

> <PUBCHEM_ATOM_DEF_STEREO_COUNT>
0

> <PUBCHEM_ATOM_UDEF_STEREO_COUNT>
0

> <PUBCHEM_BONDANNOTATIONS>
1  10  8
1  13  8
11  14  8
12  15  8
14  16  8
15  16  8
17  20  8
20  21  8
21  22  8
3  17  8
3  22  8
5  10  8
5  9  8
8  11  8
8  12  8
9  13  8

> <PUBCHEM_BOND_DEF_STEREO_COUNT>
0

> <PUBCHEM_BOND_UDEF_STEREO_COUNT>
0

> <PUBCHEM_CACTVS_COMPLEXITY>
416

> <PUBCHEM_CACTVS_HBOND_ACCEPTOR>
4

> <PUBCHEM_CACTVS_HBOND_DONOR>
2

> <PUBCHEM_CACTVS_ROTATABLE_BOND>
3

> <PUBCHEM_CACTVS_SUBSKEYS>
AAADccBzMABgAAAAAAAAAAAAAAAAAWJAAAAwAAAAAAAAAAAB8AAAHgQQAAAADAyl3gKxlZLIFEisA61y9AKC+KllKjkJiDX2LNiOJrKktT+HOSjswRMYqaeYl4IOAAAAAAAAAAAAAAAAAAAAAAAAAAAAAA==

> <PUBCHEM_CACTVS_TAUTO_COUNT>
8

> <PUBCHEM_CACTVS_TPSA>
128

> <PUBCHEM_COMPONENT_COUNT>
1

> <PUBCHEM_COMPOUND_CANONICALIZED>
1

> <PUBCHEM_COMPOUND_CID>
738234

> <PUBCHEM_COORDINATE_TYPE>
1
5
255

> <PUBCHEM_EXACT_MASS>
329.029269

> <PUBCHEM_HEAVY_ATOM_COUNT>
22

> <PUBCHEM_ISOTOPIC_ATOM_COUNT>
0

> <PUBCHEM_IUPAC_CAS_NAME>
N-[[(4-phenyl-2-thiazolyl)amino]-sulfanylidenemethyl]-2-furancarboxamide

> <PUBCHEM_IUPAC_INCHI>
InChI=1S/C15H11N3O2S2/c19-13(12-7-4-8-20-12)17-14(21)18-15-16-11(9-22-15)10-5-2-1-3-6-10/h1-9H,(H2,16,17,18,19,21)

> <PUBCHEM_IUPAC_INCHIKEY>
PXKKBCJSETYFNQ-UHFFFAOYSA-N

> <PUBCHEM_IUPAC_NAME>
N-[(4-phenyl-1,3-thiazol-2-yl)carbamothioyl]furan-2-carboxamide

> <PUBCHEM_IUPAC_OPENEYE_NAME>
N-[(4-phenylthiazol-2-yl)carbamothioyl]furan-2-carboxamide

> <PUBCHEM_IUPAC_SYSTEMATIC_NAME>
N-[(4-phenyl-1,3-thiazol-2-yl)carbamothioyl]furan-2-carboxamide

> <PUBCHEM_IUPAC_TRADITIONAL_NAME>
N-[(4-phenylthiazol-2-yl)thiocarbamoyl]-2-furamide

> <PUBCHEM_MOLECULAR_FORMULA>
C15H11N3O2S2

> <PUBCHEM_MOLECULAR_WEIGHT>
329.39674

> <PUBCHEM_MONOISOTOPIC_WEIGHT>
329.029269

> <PUBCHEM_OPENEYE_CAN_SMILES>
C1=CC=C(C=C1)C2=CSC(=N2)NC(=S)NC(=O)C3=CC=CO3

> <PUBCHEM_OPENEYE_ISO_SMILES>
C1=CC=C(C=C1)C2=CSC(=N2)NC(=S)NC(=O)C3=CC=CO3

> <PUBCHEM_TOTAL_CHARGE>
0

> <PUBCHEM_XLOGP3_AA>
3.9

$$$$
Written by BCL::WriteToMDL,3923182
MBcorina  10171218483D 1   1.00000     0.00000 
CORINA 3.49 0026  01.06.2011
 52 55  0  0  0  0  0  0  0  0999 V2000
    0.2180    1.0321    0.2160 S   0  0  0  1  0  4  0  0  0  0  0  0
   -5.4552   -0.2625   -2.6920 F   0  0  0  1  0  1  0  0  0  0  0  0
   -4.4697    1.5862    4.9716 O   0  0  0  1  0  1  0  0  0  0  0  0
    0.2428   -0.3730    0.0056 O   0  0  0  1  0  1  0  0  0  0  0  0
    1.3901    1.8073    0.4266 O   0  0  0  1  0  1  0  0  0  0  0  0
   -2.8318    2.6100    6.0677 N   0  0  0  1  0  3  0  0  0  0  0  0
   -1.5493    2.9703    8.5152 N   0  0  0  1  0  3  0  0  0  0  0  0
   -1.3983    1.8611   10.5785 N   0  0  0  1  0  2  0  0  0  0  0  0
   -0.5467    1.6883   -1.0982 N   0  0  0  1  0  3  0  0  0  0  0  0
   -3.6529    2.7764    7.2765 C   0  0  0  1  0  4  0  0  0  0  0  0
   -1.4651    3.1532    6.0746 C   0  0  0  1  0  4  0  0  0  0  0  0
   -2.8476    2.2838    8.4836 C   0  0  0  1  0  4  0  0  0  0  0  0
   -0.7459    2.6458    7.3290 C   0  0  0  1  0  4  0  0  0  0  0  0
   -3.3171    1.9717    4.9843 C   0  0  0  1  0  3  0  0  0  0  0  0
   -0.8565    2.6723    9.6829 C   0  0  0  1  0  3  0  0  0  0  0  0
   -2.4473    1.7405    3.8113 C   0  0  0  1  0  3  0  0  0  0  0  0
    0.3999    3.2284    9.8999 C   0  0  0  1  0  3  0  0  0  0  0  0
   -2.5130    0.5312    3.1175 C   0  0  0  1  0  3  0  0  0  0  0  0
   -1.5606    2.7326    3.3898 C   0  0  0  1  0  3  0  0  0  0  0  0
   -0.8186    1.3076    1.6140 C   0  0  0  1  0  3  0  0  0  0  0  0
   -1.6990    0.3220    2.0235 C   0  0  0  1  0  3  0  0  0  0  0  0
   -0.7522    2.5107    2.2942 C   0  0  0  1  0  3  0  0  0  0  0  0
    1.0785    2.9229   11.0661 C   0  0  0  1  0  3  0  0  0  0  0  0
   -0.7742    1.5523   11.6992 C   0  0  0  1  0  3  0  0  0  0  0  0
    0.4754    2.0684   11.9792 C   0  0  0  1  0  3  0  0  0  0  0  0
   -1.7907    1.1939   -1.5021 C   0  0  0  1  0  3  0  0  0  0  0  0
   -2.8237    2.0720   -1.8027 C   0  0  0  1  0  3  0  0  0  0  0  0
   -1.9933   -0.1759   -1.6088 C   0  0  0  1  0  3  0  0  0  0  0  0
   -4.0517    1.5814   -2.2015 C   0  0  0  1  0  3  0  0  0  0  0  0
   -3.2229   -0.6621   -2.0080 C   0  0  0  1  0  3  0  0  0  0  0  0
   -4.2532    0.2152   -2.3017 C   0  0  0  1  0  3  0  0  0  0  0  0
   -0.9324    2.8159    5.1854 H   0  0  0  1  0  1  0  0  0  0  0  0
   -3.9022    3.8294    7.4077 H   0  0  0  1  0  1  0  0  0  0  0  0
   -4.5668    2.1899    7.1820 H   0  0  0  1  0  1  0  0  0  0  0  0
   -1.5040    4.2424    6.0903 H   0  0  0  1  0  1  0  0  0  0  0  0
   -2.6886    1.2086    8.4005 H   0  0  0  1  0  1  0  0  0  0  0  0
   -3.3963    2.5009    9.4000 H   0  0  0  1  0  1  0  0  0  0  0  0
    0.2297    3.1255    7.4080 H   0  0  0  1  0  1  0  0  0  0  0  0
   -0.6161    1.5656    7.2619 H   0  0  0  1  0  1  0  0  0  0  0  0
    0.8397    3.8894    9.1678 H   0  0  0  1  0  1  0  0  0  0  0  0
   -3.1997   -0.2390    3.4363 H   0  0  0  1  0  1  0  0  0  0  0  0
   -1.5081    3.6723    3.9196 H   0  0  0  1  0  1  0  0  0  0  0  0
   -1.7489   -0.6132    1.4857 H   0  0  0  1  0  1  0  0  0  0  0  0
   -0.0656    3.2775    1.9669 H   0  0  0  1  0  1  0  0  0  0  0  0
    2.0555    3.3394   11.2617 H   0  0  0  1  0  1  0  0  0  0  0  0
   -1.2471    0.8875   12.4069 H   0  0  0  1  0  1  0  0  0  0  0  0
    0.9788    1.8097   12.8990 H   0  0  0  1  0  1  0  0  0  0  0  0
   -0.1317    2.4156   -1.5877 H   0  0  0  1  0  1  0  0  0  0  0  0
   -2.6671    3.1377   -1.7244 H   0  0  0  1  0  1  0  0  0  0  0  0
   -1.1899   -0.8605   -1.3802 H   0  0  0  1  0  1  0  0  0  0  0  0
   -4.8555    2.2639   -2.4351 H   0  0  0  1  0  1  0  0  0  0  0  0
   -3.3810   -1.7272   -2.0911 H   0  0  0  1  0  1  0  0  0  0  0  0
  1  4  2  0  0  0  0
  1  5  2  0  0  0  0
  1  9  1  0  0  0  0
  1 20  1  0  0  0  0
  2 31  1  0  0  0  0
  3 14  2  0  0  0  0
  6 10  1  0  0  0  0
  6 11  1  0  0  0  0
  6 14  1  0  0  0  0
  7 12  1  0  0  0  0
  7 13  1  0  0  0  0
  7 15  1  0  0  0  0
  8 15  1  0  0  0  0
  8 24  2  0  0  0  0
  9 26  1  0  0  0  0
  9 48  1  0  0  0  0
 10 12  1  0  0  0  0
 10 33  1  0  0  0  0
 10 34  1  0  0  0  0
 11 13  1  0  0  0  0
 11 32  1  0  0  0  0
 11 35  1  0  0  0  0
 12 36  1  0  0  0  0
 12 37  1  0  0  0  0
 13 38  1  0  0  0  0
 13 39  1  0  0  0  0
 14 16  1  0  0  0  0
 15 17  2  0  0  0  0
 16 18  2  0  0  0  0
 16 19  1  0  0  0  0
 17 23  1  0  0  0  0
 17 40  1  0  0  0  0
 18 21  1  0  0  0  0
 18 41  1  0  0  0  0
 19 22  2  0  0  0  0
 19 42  1  0  0  0  0
 20 21  2  0  0  0  0
 20 22  1  0  0  0  0
 21 43  1  0  0  0  0
 22 44  1  0  0  0  0
 23 25  2  0  0  0  0
 23 45  1  0  0  0  0
 24 25  1  0  0  0  0
 24 46  1  0  0  0  0
 25 47  1  0  0  0  0
 26 27  2  0  0  0  0
 26 28  1  0  0  0  0
 27 29  1  0  0  0  0
 27 49  1  0  0  0  0
 28 30  2  0  0  0  0
 28 50  1  0  0  0  0
 29 31  2  0  0  0  0
 29 51  1  0  0  0  0
 30 31  1  0  0  0  0
 30 52  1  0  0  0  0
M  END
> <Activity>
4.448

> <Mapped(file=504701.csv.activities,property=Cached(PUBCHEM_COMPOUND_CID))>
4.448

> <PUBCHEM_ATOM_DEF_STEREO_COUNT>
0

> <PUBCHEM_ATOM_UDEF_STEREO_COUNT>
0

> <PUBCHEM_BONDANNOTATIONS>
15  17  8
16  18  8
16  19  8
17  23  8
18  21  8
19  22  8
20  21  8
20  22  8
23  25  8
24  25  8
26  27  8
26  28  8
27  29  8
28  30  8
29  31  8
30  31  8
8  15  8
8  24  8

> <PUBCHEM_BOND_DEF_STEREO_COUNT>
0

> <PUBCHEM_BOND_UDEF_STEREO_COUNT>
0

> <PUBCHEM_CACTVS_COMPLEXITY>
692

> <PUBCHEM_CACTVS_HBOND_ACCEPTOR>
6

> <PUBCHEM_CACTVS_HBOND_DONOR>
1

> <PUBCHEM_CACTVS_ROTATABLE_BOND>
5

> <PUBCHEM_CACTVS_SUBSKEYS>
AAADceB7sQBAAAAAAAAAAAAAAAAAAAAAAAA8eIEAAAAAAAAB0AAAHwQQQAAADAjB2gw98ZNIEAKoAjd3dHDCgDk1AiAJ2Dk4ZNiIYPLAnZGUIQholgLIyacYiACOEAAAAAAAAAAgAAAAAAAAAAAAAAAAAA==

> <PUBCHEM_CACTVS_TAUTO_COUNT>
1

> <PUBCHEM_CACTVS_TPSA>
91

> <PUBCHEM_COMPONENT_COUNT>
1

> <PUBCHEM_COMPOUND_CANONICALIZED>
1

> <PUBCHEM_COMPOUND_CID>
3923182

> <PUBCHEM_COORDINATE_TYPE>
1
5
255

> <PUBCHEM_EXACT_MASS>
440.13184

> <PUBCHEM_HEAVY_ATOM_COUNT>
31

> <PUBCHEM_ISOTOPIC_ATOM_COUNT>
0

> <PUBCHEM_IUPAC_CAS_NAME>
N-(4-fluorophenyl)-4-[oxo-[4-(2-pyridinyl)-1-piperazinyl]methyl]benzenesulfonamide

> <PUBCHEM_IUPAC_INCHI>
InChI=1S/C22H21FN4O3S/c23-18-6-8-19(9-7-18)25-31(29,30)20-10-4-17(5-11-20)22(28)27-15-13-26(14-16-27)21-3-1-2-12-24-21/h1-12,25H,13-16H2

> <PUBCHEM_IUPAC_INCHIKEY>
HXVLXVBIEVNEAI-UHFFFAOYSA-N

> <PUBCHEM_IUPAC_NAME>
N-(4-fluorophenyl)-4-(4-pyridin-2-ylpiperazine-1-carbonyl)benzenesulfonamide

> <PUBCHEM_IUPAC_OPENEYE_NAME>
N-(4-fluorophenyl)-4-[4-(2-pyridyl)piperazine-1-carbonyl]benzenesulfonamide

> <PUBCHEM_IUPAC_SYSTEMATIC_NAME>
N-(4-fluorophenyl)-4-(4-pyridin-2-ylpiperazin-1-yl)carbonyl-benzenesulfonamide

> <PUBCHEM_IUPAC_TRADITIONAL_NAME>
N-(4-fluorophenyl)-4-[4-(2-pyridyl)piperazine-1-carbonyl]benzenesulfonamide

> <PUBCHEM_MOLECULAR_FORMULA>
C22H21FN4O3S

> <PUBCHEM_MOLECULAR_WEIGHT>
440.490543

> <PUBCHEM_MONOISOTOPIC_WEIGHT>
440.13184

> <PUBCHEM_OPENEYE_CAN_SMILES>
C1CN(CCN1C2=CC=CC=N2)C(=O)C3=CC=C(C=C3)S(=O)(=O)NC4=CC=C(C=C4)F

> <PUBCHEM_OPENEYE_ISO_SMILES>
C1CN(CCN1C2=CC=CC=N2)C(=O)C3=CC=C(C=C3)S(=O)(=O)NC4=CC=C(C=C4)F

> <PUBCHEM_TOTAL_CHARGE>
0

> <PUBCHEM_XLOGP3_AA>
2.9

$$$$
Written by BCL::WriteToMDL,9397654
MBcorina  10171218483D 1   1.00000     0.00000 
CORINA 3.49 0026  01.06.2011
 51 54  0  0  0  0  0  0  0  0999 V2000
   -0.1016    1.2546   -1.0623 S   0  0  0  1  0  4  0  0  0  0  0  0
   -0.1615   -0.1555   -1.2270 O   0  0  0  1  0  1  0  0  0  0  0  0
    1.0893    2.0084   -1.2430 O   0  0  0  1  0  1  0  0  0  0  0  0
   -4.3667    3.2025    0.5919 O   0  0  0  1  0  1  0  0  0  0  0  0
   -1.2222    1.8947   -2.1001 N   0  0  0  1  0  3  0  0  0  0  0  0
   -3.7458    2.8195   -1.5066 N   0  0  0  1  0  3  0  0  0  0  0  0
   -4.6866    0.0367   -1.0799 N   0  0  0  1  0  3  0  0  0  0  0  0
   -1.0636    3.2499   -2.5432 C   0  0  0  1  0  4  0  0  0  0  0  0
   -2.3582    1.0433   -2.5480 C   0  0  0  1  0  4  0  0  0  0  0  0
   -1.7230    4.1699   -1.5019 C   0  0  0  1  0  4  0  0  0  0  0  0
   -3.6502    1.8956   -2.6020 C   0  0  0  1  0  4  0  0  0  0  0  0
   -3.1874    4.1955   -1.6434 C   0  0  0  1  0  4  0  0  0  0  0  0
   -4.3378    2.4412   -0.3564 C   0  0  0  1  0  3  0  0  0  0  0  0
   -0.6577    1.5882    0.5761 C   0  0  0  1  0  3  0  0  0  0  0  0
   -4.9488    1.1079   -0.2479 C   0  0  0  1  0  3  0  0  0  0  0  0
   -5.8611    0.7335    0.6867 C   0  0  0  1  0  3  0  0  0  0  0  0
   -1.4749    0.6826    1.2264 C   0  0  0  1  0  3  0  0  0  0  0  0
   -0.2721    2.7528    1.2132 C   0  0  0  1  0  3  0  0  0  0  0  0
   -5.4420   -1.0368   -0.6710 C   0  0  0  1  0  3  0  0  0  0  0  0
   -6.1941   -0.6215    0.4455 C   0  0  0  1  0  3  0  0  0  0  0  0
   -1.9112    0.9443    2.5117 C   0  0  0  1  0  3  0  0  0  0  0  0
   -0.7083    3.0145    2.4985 C   0  0  0  1  0  3  0  0  0  0  0  0
   -1.5299    2.1114    3.1469 C   0  0  0  1  0  3  0  0  0  0  0  0
   -5.5727   -2.3420   -1.1365 C   0  0  0  1  0  3  0  0  0  0  0  0
   -7.0612   -1.5253    1.0724 C   0  0  0  1  0  3  0  0  0  0  0  0
   -6.4317   -3.2120   -0.5028 C   0  0  0  1  0  3  0  0  0  0  0  0
   -7.1715   -2.8003    0.5983 C   0  0  0  1  0  3  0  0  0  0  0  0
   -2.0059    2.3969    4.5479 C   0  0  0  1  0  4  0  0  0  0  0  0
   -0.0034    3.4886   -2.6270 H   0  0  0  1  0  1  0  0  0  0  0  0
   -1.5490    3.3806   -3.5104 H   0  0  0  1  0  1  0  0  0  0  0  0
   -2.1444    0.6440   -3.5394 H   0  0  0  1  0  1  0  0  0  0  0  0
   -2.4946    0.2205   -1.8461 H   0  0  0  1  0  1  0  0  0  0  0  0
   -1.4690    3.8150   -0.5031 H   0  0  0  1  0  1  0  0  0  0  0  0
   -1.3366    5.1815   -1.6266 H   0  0  0  1  0  1  0  0  0  0  0  0
   -4.5142    1.2314   -2.5795 H   0  0  0  1  0  1  0  0  0  0  0  0
   -3.6624    2.4552   -3.5373 H   0  0  0  1  0  1  0  0  0  0  0  0
   -3.4459    4.5938   -2.6246 H   0  0  0  1  0  1  0  0  0  0  0  0
   -3.6150    4.8366   -0.8726 H   0  0  0  1  0  1  0  0  0  0  0  0
   -4.0735    0.0423   -1.8316 H   0  0  0  1  0  1  0  0  0  0  0  0
   -6.2607    1.3573    1.4725 H   0  0  0  1  0  1  0  0  0  0  0  0
   -1.7728   -0.2292    0.7302 H   0  0  0  1  0  1  0  0  0  0  0  0
    0.3703    3.4581    0.7068 H   0  0  0  1  0  1  0  0  0  0  0  0
   -2.5503    0.2371    3.0196 H   0  0  0  1  0  1  0  0  0  0  0  0
   -0.4068    3.9242    2.9964 H   0  0  0  1  0  1  0  0  0  0  0  0
   -5.0015   -2.6717   -1.9918 H   0  0  0  1  0  1  0  0  0  0  0  0
   -7.6407   -1.2142    1.9290 H   0  0  0  1  0  1  0  0  0  0  0  0
   -6.5317   -4.2242   -0.8660 H   0  0  0  1  0  1  0  0  0  0  0  0
   -7.8404   -3.4955    1.0837 H   0  0  0  1  0  1  0  0  0  0  0  0
   -1.2925    1.9892    5.2642 H   0  0  0  1  0  1  0  0  0  0  0  0
   -2.0889    3.4743    4.6910 H   0  0  0  1  0  1  0  0  0  0  0  0
   -2.9805    1.9338    4.7020 H   0  0  0  1  0  1  0  0  0  0  0  0
  1  2  2  0  0  0  0
  1  3  2  0  0  0  0
  1  5  1  0  0  0  0
  1 14  1  0  0  0  0
  4 13  2  0  0  0  0
  5  8  1  0  0  0  0
  5  9  1  0  0  0  0
  6 11  1  0  0  0  0
  6 12  1  0  0  0  0
  6 13  1  0  0  0  0
  7 15  1  0  0  0  0
  7 19  1  0  0  0  0
  7 39  1  0  0  0  0
  8 10  1  0  0  0  0
  8 29  1  0  0  0  0
  8 30  1  0  0  0  0
  9 11  1  0  0  0  0
  9 31  1  0  0  0  0
  9 32  1  0  0  0  0
 10 12  1  0  0  0  0
 10 33  1  0  0  0  0
 10 34  1  0  0  0  0
 11 35  1  0  0  0  0
 11 36  1  0  0  0  0
 12 37  1  0  0  0  0
 12 38  1  0  0  0  0
 13 15  1  0  0  0  0
 14 17  2  0  0  0  0
 14 18  1  0  0  0  0
 15 16  2  0  0  0  0
 16 20  1  0  0  0  0
 16 40  1  0  0  0  0
 17 21  1  0  0  0  0
 17 41  1  0  0  0  0
 18 22  2  0  0  0  0
 18 42  1  0  0  0  0
 19 20  1  0  0  0  0
 19 24  2  0  0  0  0
 20 25  2  0  0  0  0
 21 23  2  0  0  0  0
 21 43  1  0  0  0  0
 22 23  1  0  0  0  0
 22 44  1  0  0  0  0
 23 28  1  0  0  0  0
 24 26  1  0  0  0  0
 24 45  1  0  0  0  0
 25 27  1  0  0  0  0
 25 46  1  0  0  0  0
 26 27  2  0  0  0  0
 26 47  1  0  0  0  0
 27 48  1  0  0  0  0
 28 49  1  0  0  0  0
 28 50  1  0  0  0  0
 28 51  1  0  0  0  0
M  END
> <Activity>
0.07773

> <Mapped(file=504701.csv.activities,property=Cached(PUBCHEM_COMPOUND_CID))>
0.07773

> <PUBCHEM_ATOM_DEF_STEREO_COUNT>
0

> <PUBCHEM_ATOM_UDEF_STEREO_COUNT>
0

> <PUBCHEM_BONDANNOTATIONS>
14  17  8
14  18  8
15  16  8
16  20  8
17  21  8
18  22  8
19  20  8
19  24  8
20  25  8
21  23  8
22  23  8
24  26  8
25  27  8
26  27  8
7  15  8
7  19  8

> <PUBCHEM_BOND_DEF_STEREO_COUNT>
0

> <PUBCHEM_BOND_UDEF_STEREO_COUNT>
0

> <PUBCHEM_CACTVS_COMPLEXITY>
654

> <PUBCHEM_CACTVS_HBOND_ACCEPTOR>
4

> <PUBCHEM_CACTVS_HBOND_DONOR>
1

> <PUBCHEM_CACTVS_ROTATABLE_BOND>
3

> <PUBCHEM_CACTVS_SUBSKEYS>
AAADceB7MABAAAAAAAAAAAAAAAAAAWAAAAAwYAAABYAAAFgB9AAAHgQQQAAADAjB3gQywfPJkAKoAyVyVHDCgDAnAiAImTm4ZNgIYPLA1bGUIQhglgDIyYcYiYCeEAAAAAACAAAgAAAAAAQAAAAAAAAAAA==

> <PUBCHEM_CACTVS_TAUTO_COUNT>
6

> <PUBCHEM_CACTVS_TPSA>
81.9

> <PUBCHEM_COMPONENT_COUNT>
1

> <PUBCHEM_COMPOUND_CANONICALIZED>
1

> <PUBCHEM_COMPOUND_CID>
9397654

> <PUBCHEM_COORDINATE_TYPE>
1
5
255

> <PUBCHEM_EXACT_MASS>
397.146013

> <PUBCHEM_HEAVY_ATOM_COUNT>
28

> <PUBCHEM_ISOTOPIC_ATOM_COUNT>
0

> <PUBCHEM_IUPAC_CAS_NAME>
1H-indol-2-yl-[4-(4-methylphenyl)sulfonyl-1,4-diazepan-1-yl]methanone

> <PUBCHEM_IUPAC_INCHI>
InChI=1S/C21H23N3O3S/c1-16-7-9-18(10-8-16)28(26,27)24-12-4-11-23(13-14-24)21(25)20-15-17-5-2-3-6-19(17)22-20/h2-3,5-10,15,22H,4,11-14H2,1H3

> <PUBCHEM_IUPAC_INCHIKEY>
QELJUVYWWJBVSV-UHFFFAOYSA-N

> <PUBCHEM_IUPAC_NAME>
1H-indol-2-yl-[4-(4-methylphenyl)sulfonyl-1,4-diazepan-1-yl]methanone

> <PUBCHEM_IUPAC_OPENEYE_NAME>
1H-indol-2-yl-[4-(p-tolylsulfonyl)-1,4-diazepan-1-yl]methanone

> <PUBCHEM_IUPAC_SYSTEMATIC_NAME>
1H-indol-2-yl-[4-(4-methylphenyl)sulfonyl-1,4-diazepan-1-yl]methanone

> <PUBCHEM_IUPAC_TRADITIONAL_NAME>
1H-indol-2-yl-(4-tosyl-1,4-diazepan-1-yl)methanone

> <PUBCHEM_MOLECULAR_FORMULA>
C21H23N3O3S

> <PUBCHEM_MOLECULAR_WEIGHT>
397.49062

> <PUBCHEM_MONOISOTOPIC_WEIGHT>
397.146013

> <PUBCHEM_OPENEYE_CAN_SMILES>
CC1=CC=C(C=C1)S(=O)(=O)N2CCCN(CC2)C(=O)C3=CC4=CC=CC=C4N3

> <PUBCHEM_OPENEYE_ISO_SMILES>
CC1=CC=C(C=C1)S(=O)(=O)N2CCCN(CC2)C(=O)C3=CC4=CC=CC=C4N3

> <PUBCHEM_TOTAL_CHARGE>
0

> <PUBCHEM_XLOGP3_AA>
3.2

$$$$
Written by BCL::WriteToMDL,3902315
MBcorina  10171218483D 1   1.00000     0.00000 
CORINA 3.49 0026  01.06.2011
 43 47  0  0  0  0  0  0  0  0999 V2000
   -0.0220    1.7679    0.0118 S   0  0  0  1  0  2  0  0  0  0  0  0
   -1.6485   -4.1056    4.7053 O   0  0  0  1  0  2  0  0  0  0  0  0
    2.7775   -2.0585   -0.0351 O   0  0  0  1  0  1  0  0  0  0  0  0
   -2.6095   -3.0766    1.2741 N   0  0  0  1  0  3  0  0  0  0  0  0
   -0.9751   -0.8913    0.0062 N   0  0  0  1  0  2  0  0  0  0  0  0
    1.3170   -0.3576   -0.0124 N   0  0  0  1  0  3  0  0  0  0  0  0
   -2.5263   -3.8330    3.6128 C   0  0  0  1  0  4  0  0  0  0  0  0
   -1.7162   -3.5054    2.3554 C   0  0  0  1  0  4  0  0  0  0  0  0
   -3.8044   -3.7804    1.1831 C   0  0  0  1  0  3  0  0  0  0  0  0
   -3.3514   -5.0848    3.2870 C   0  0  0  1  0  4  0  0  0  0  0  0
   -4.1675   -4.7839    2.0514 C   0  0  0  1  0  3  0  0  0  0  0  0
   -1.8607   -3.1881    0.0010 C   0  0  0  1  0  4  0  0  0  0  0  0
   -4.7374   -3.4068    0.1787 C   0  0  0  1  0  3  0  0  0  0  0  0
   -5.2971   -5.5692    1.8129 C   0  0  0  1  0  3  0  0  0  0  0  0
   -5.8409   -4.2501   -0.0985 C   0  0  0  1  0  3  0  0  0  0  0  0
   -6.1066   -5.3409    0.7464 C   0  0  0  1  0  3  0  0  0  0  0  0
   -0.7269   -2.1953   -0.0036 C   0  0  0  1  0  3  0  0  0  0  0  0
   -4.6305   -2.1938   -0.5189 C   0  0  0  1  0  3  0  0  0  0  0  0
   -6.6617   -3.9777   -1.2063 C   0  0  0  1  0  3  0  0  0  0  0  0
    0.5814   -2.6297   -0.0184 C   0  0  0  1  0  3  0  0  0  0  0  0
   -5.4719   -1.9314   -1.5580 C   0  0  0  1  0  3  0  0  0  0  0  0
   -6.4716   -2.8321   -1.9168 C   0  0  0  1  0  3  0  0  0  0  0  0
    0.0021   -0.0041    0.0020 C   0  0  0  1  0  3  0  0  0  0  0  0
    1.6135   -1.6900   -0.0219 C   0  0  0  1  0  3  0  0  0  0  0  0
    2.2073    0.6874   -0.0153 C   0  0  0  1  0  3  0  0  0  0  0  0
    1.7433    1.9247   -0.0042 C   0  0  0  1  0  3  0  0  0  0  0  0
   -3.1900   -3.0077    3.8605 H   0  0  0  1  0  1  0  0  0  0  0  0
   -1.1647   -4.3916    2.0345 H   0  0  0  1  0  1  0  0  0  0  0  0
   -1.0076   -2.7043    2.5747 H   0  0  0  1  0  1  0  0  0  0  0  0
   -2.6844   -5.9201    3.0923 H   0  0  0  1  0  1  0  0  0  0  0  0
   -4.0127   -5.3122    4.1184 H   0  0  0  1  0  1  0  0  0  0  0  0
   -1.4605   -4.1971   -0.0980 H   0  0  0  1  0  1  0  0  0  0  0  0
   -2.5300   -2.9792   -0.8336 H   0  0  0  1  0  1  0  0  0  0  0  0
   -5.5341   -6.3756    2.4910 H   0  0  0  1  0  1  0  0  0  0  0  0
   -6.9457   -5.9906    0.5501 H   0  0  0  1  0  1  0  0  0  0  0  0
   -3.9021   -1.4519   -0.2253 H   0  0  0  1  0  1  0  0  0  0  0  0
   -2.1034   -4.3202    5.5313 H   0  0  0  1  0  1  0  0  0  0  0  0
   -7.4367   -4.6732   -1.4926 H   0  0  0  1  0  1  0  0  0  0  0  0
    0.8055   -3.6862   -0.0260 H   0  0  0  1  0  1  0  0  0  0  0  0
   -5.3619   -1.0103   -2.1110 H   0  0  0  1  0  1  0  0  0  0  0  0
   -7.1021   -2.6198   -2.7668 H   0  0  0  1  0  1  0  0  0  0  0  0
    3.2711    0.5010   -0.0261 H   0  0  0  1  0  1  0  0  0  0  0  0
    2.3185    2.8388   -0.0052 H   0  0  0  1  0  1  0  0  0  0  0  0
  1 23  1  0  0  0  0
  1 26  1  0  0  0  0
  2  7  1  0  0  0  0
  2 37  1  0  0  0  0
  3 24  2  0  0  0  0
  4  8  1  0  0  0  0
  4  9  1  0  0  0  0
  4 12  1  0  0  0  0
  5 17  1  0  0  0  0
  5 23  2  0  0  0  0
  6 23  1  0  0  0  0
  6 24  1  0  0  0  0
  6 25  1  0  0  0  0
  7  8  1  0  0  0  0
  7 10  1  0  0  0  0
  7 27  1  0  0  0  0
  8 28  1  0  0  0  0
  8 29  1  0  0  0  0
  9 11  2  0  0  0  0
  9 13  1  0  0  0  0
 10 11  1  0  0  0  0
 10 30  1  0  0  0  0
 10 31  1  0  0  0  0
 11 14  1  0  0  0  0
 12 17  1  0  0  0  0
 12 32  1  0  0  0  0
 12 33  1  0  0  0  0
 13 15  1  0  0  0  0
 13 18  2  0  0  0  0
 14 16  2  0  0  0  0
 14 34  1  0  0  0  0
 15 16  1  0  0  0  0
 15 19  2  0  0  0  0
 16 35  1  0  0  0  0
 17 20  2  0  0  0  0
 18 21  1  0  0  0  0
 18 36  1  0  0  0  0
 19 22  1  0  0  0  0
 19 38  1  0  0  0  0
 20 24  1  0  0  0  0
 20 39  1  0  0  0  0
 21 22  2  0  0  0  0
 21 40  1  0  0  0  0
 22 41  1  0  0  0  0
 25 26  2  0  0  0  0
 25 42  1  0  0  0  0
 26 43  1  0  0  0  0
M  END
> <Activity>
4.124

> <Mapped(file=504701.csv.activities,property=Cached(PUBCHEM_COMPOUND_CID))>
4.124

> <PUBCHEM_ATOM_DEF_STEREO_COUNT>
0

> <PUBCHEM_ATOM_UDEF_STEREO_COUNT>
1

> <PUBCHEM_BONDANNOTATIONS>
1  23  8
1  26  8
11  14  8
13  15  8
13  18  8
14  16  8
15  16  8
15  19  8
17  20  8
18  21  8
19  22  8
7  2  3
20  24  8
21  22  8
25  26  8
5  17  8
5  23  8
6  23  8
6  24  8
6  25  8
9  11  8
9  13  8

> <PUBCHEM_BOND_DEF_STEREO_COUNT>
0

> <PUBCHEM_BOND_UDEF_STEREO_COUNT>
0

> <PUBCHEM_CACTVS_COMPLEXITY>
689

> <PUBCHEM_CACTVS_HBOND_ACCEPTOR>
5

> <PUBCHEM_CACTVS_HBOND_DONOR>
1

> <PUBCHEM_CACTVS_ROTATABLE_BOND>
2

> <PUBCHEM_CACTVS_SUBSKEYS>
AAADceB7MABAAAAAAAAAAAAAAAAAAQAAAAA8YIEAAAAAAEDxUAAAHgQACAAADBzl2AaxwMMAAgioAiVWdACCEAFhAgAJiAAIRMgKcCLAmZGUYAhkwgHYyUewwPAOwAACQAASAACAAASAACQAAAAAAAAAAA==

> <PUBCHEM_CACTVS_TAUTO_COUNT>
1

> <PUBCHEM_CACTVS_TPSA>
81.4

> <PUBCHEM_COMPONENT_COUNT>
1

> <PUBCHEM_COMPOUND_CANONICALIZED>
1

> <PUBCHEM_COMPOUND_CID>
3902315

> <PUBCHEM_COORDINATE_TYPE>
1
5
255

> <PUBCHEM_EXACT_MASS>
363.104148

> <PUBCHEM_HEAVY_ATOM_COUNT>
26

> <PUBCHEM_ISOTOPIC_ATOM_COUNT>
0

> <PUBCHEM_IUPAC_CAS_NAME>
7-[(3-hydroxy-3,4-dihydro-2H-benzo[h]quinolin-1-yl)methyl]-5-thiazolo[3,2-a]pyrimidinone

> <PUBCHEM_IUPAC_INCHI>
InChI=1S/C20H17N3O2S/c24-16-9-14-6-5-13-3-1-2-4-17(13)19(14)22(12-16)11-15-10-18(25)23-7-8-26-20(23)21-15/h1-8,10,16,24H,9,11-12H2

> <PUBCHEM_IUPAC_INCHIKEY>
OJDHOYJFMJIZCR-UHFFFAOYSA-N

> <PUBCHEM_IUPAC_NAME>
7-[(3-hydroxy-3,4-dihydro-2H-benzo[h]quinolin-1-yl)methyl]-[1,3]thiazolo[3,2-a]pyrimidin-5-one

> <PUBCHEM_IUPAC_OPENEYE_NAME>
7-[(3-hydroxy-3,4-dihydro-2H-benzo[h]quinolin-1-yl)methyl]thiazolo[3,2-a]pyrimidin-5-one

> <PUBCHEM_IUPAC_SYSTEMATIC_NAME>
7-[(3-oxidanyl-3,4-dihydro-2H-benzo[h]quinolin-1-yl)methyl]-[1,3]thiazolo[3,2-a]pyrimidin-5-one

> <PUBCHEM_IUPAC_TRADITIONAL_NAME>
7-[(3-hydroxy-3,4-dihydro-2H-benzo[h]quinolin-1-yl)methyl]thiazolo[3,2-a]pyrimidin-5-one

> <PUBCHEM_MOLECULAR_FORMULA>
C20H17N3O2S

> <PUBCHEM_MOLECULAR_WEIGHT>
363.43288

> <PUBCHEM_MONOISOTOPIC_WEIGHT>
363.104148

> <PUBCHEM_OPENEYE_CAN_SMILES>
C1C(CN(C2=C1C=CC3=CC=CC=C32)CC4=CC(=O)N5C=CSC5=N4)O

> <PUBCHEM_OPENEYE_ISO_SMILES>
C1C(CN(C2=C1C=CC3=CC=CC=C32)CC4=CC(=O)N5C=CSC5=N4)O

> <PUBCHEM_TOTAL_CHARGE>
0

> <PUBCHEM_XLOGP3_AA>
2.5

$$$$
Written by BCL::WriteToMDL,24747942
MBcorina  10171218483D 1   1.00000     0.00000 
CORINA 3.49 0026  01.06.2011
 37 41  0  0  0  0  0  0  0  0999 V2000
   -0.0162    1.3438    0.0094 O   0  0  0  1  0  2  0  0  0  0  0  0
    3.3762   -0.4776    1.1277 O   0  0  0  1  0  1  0  0  0  0  0  0
   -5.6641   -5.1655   -1.5712 N   0  0  0  1  0  3  0  0  0  0  0  0
   -1.1328   -2.1015   -0.3149 C   0  0  0  1  0  3  0  0  0  0  0  0
   -2.3644   -2.8529   -0.6560 C   0  0  0  1  0  3  0  0  0  0  0  0
    1.1724   -0.7169    0.3140 C   0  0  0  1  0  3  0  0  0  0  0  0
    0.0021   -0.0041    0.0020 C   0  0  0  1  0  3  0  0  0  0  0  0
   -3.5165   -4.9368   -0.9786 C   0  0  0  1  0  3  0  0  0  0  0  0
   -1.1503   -0.7112   -0.3162 C   0  0  0  1  0  3  0  0  0  0  0  0
   -4.6908   -4.2306   -1.3009 C   0  0  0  1  0  3  0  0  0  0  0  0
   -2.3518   -4.2415   -0.6560 C   0  0  0  1  0  3  0  0  0  0  0  0
    2.3571    1.4902    0.3086 C   0  0  0  1  0  3  0  0  0  0  0  0
    0.0373   -2.7964    0.0062 C   0  0  0  1  0  3  0  0  0  0  0  0
    2.3965    0.0475    0.6313 C   0  0  0  1  0  3  0  0  0  0  0  0
    1.1771   -2.1124    0.3170 C   0  0  0  1  0  3  0  0  0  0  0  0
    1.1172    2.0733    0.0025 C   0  0  0  1  0  3  0  0  0  0  0  0
   -3.5383   -2.1617   -0.9771 C   0  0  0  1  0  3  0  0  0  0  0  0
   -4.6802   -2.8380   -1.2939 C   0  0  0  1  0  3  0  0  0  0  0  0
   -3.8584   -6.3583   -1.0776 C   0  0  0  1  0  3  0  0  0  0  0  0
   -5.1503   -6.4263   -1.4350 C   0  0  0  1  0  3  0  0  0  0  0  0
    3.5201    2.2577    0.3051 C   0  0  0  1  0  3  0  0  0  0  0  0
    1.0704    3.4282   -0.3103 C   0  0  0  1  0  3  0  0  0  0  0  0
    3.4491    3.5989   -0.0057 C   0  0  0  1  0  3  0  0  0  0  0  0
    2.2272    4.1781   -0.3128 C   0  0  0  1  0  3  0  0  0  0  0  0
   -2.0584   -0.1820   -0.5647 H   0  0  0  1  0  1  0  0  0  0  0  0
   -1.4477   -4.7781   -0.4087 H   0  0  0  1  0  1  0  0  0  0  0  0
    0.0395   -3.8764    0.0079 H   0  0  0  1  0  1  0  0  0  0  0  0
    2.0804   -2.6500    0.5647 H   0  0  0  1  0  1  0  0  0  0  0  0
   -3.5401   -1.0817   -0.9752 H   0  0  0  1  0  1  0  0  0  0  0  0
   -5.5786   -2.2917   -1.5405 H   0  0  0  1  0  1  0  0  0  0  0  0
   -3.1966   -7.1925   -0.8974 H   0  0  0  1  0  1  0  0  0  0  0  0
   -6.5793   -4.9608   -1.8192 H   0  0  0  1  0  1  0  0  0  0  0  0
   -5.7032   -7.3410   -1.5899 H   0  0  0  1  0  1  0  0  0  0  0  0
    4.4708    1.8049    0.5447 H   0  0  0  1  0  1  0  0  0  0  0  0
    0.1260    3.8933   -0.5519 H   0  0  0  1  0  1  0  0  0  0  0  0
    4.3466    4.1996   -0.0095 H   0  0  0  1  0  1  0  0  0  0  0  0
    2.1813    5.2291   -0.5572 H   0  0  0  1  0  1  0  0  0  0  0  0
  1  7  1  0  0  0  0
  1 16  1  0  0  0  0
  2 14  2  0  0  0  0
  3 10  1  0  0  0  0
  3 20  1  0  0  0  0
  3 32  1  0  0  0  0
  4  5  1  0  0  0  0
  4  9  2  0  0  0  0
  4 13  1  0  0  0  0
  5 11  2  0  0  0  0
  5 17  1  0  0  0  0
  6  7  2  0  0  0  0
  6 14  1  0  0  0  0
  6 15  1  0  0  0  0
  7  9  1  0  0  0  0
  8 10  2  0  0  0  0
  8 11  1  0  0  0  0
  8 19  1  0  0  0  0
  9 25  1  0  0  0  0
 10 18  1  0  0  0  0
 11 26  1  0  0  0  0
 12 14  1  0  0  0  0
 12 16  1  0  0  0  0
 12 21  2  0  0  0  0
 13 15  2  0  0  0  0
 13 27  1  0  0  0  0
 15 28  1  0  0  0  0
 16 22  2  0  0  0  0
 17 18  2  0  0  0  0
 17 29  1  0  0  0  0
 18 30  1  0  0  0  0
 19 20  2  0  0  0  0
 19 31  1  0  0  0  0
 20 33  1  0  0  0  0
 21 23  1  0  0  0  0
 21 34  1  0  0  0  0
 22 24  1  0  0  0  0
 22 35  1  0  0  0  0
 23 24  2  0  0  0  0
 23 36  1  0  0  0  0
 24 37  1  0  0  0  0
M  END
> <Activity>
2.711

> <Mapped(file=504701.csv.activities,property=Cached(PUBCHEM_COMPOUND_CID))>
2.711

> <PUBCHEM_ATOM_DEF_STEREO_COUNT>
0

> <PUBCHEM_ATOM_UDEF_STEREO_COUNT>
0

> <PUBCHEM_BONDANNOTATIONS>
1  16  8
1  7  8
10  18  8
12  14  8
12  16  8
12  21  8
13  15  8
16  22  8
17  18  8
19  20  8
21  23  8
22  24  8
23  24  8
3  10  8
3  20  8
4  13  8
4  9  8
5  11  8
5  17  8
6  14  8
6  15  8
6  7  8
7  9  8
8  10  8
8  11  8
8  19  8

> <PUBCHEM_BOND_DEF_STEREO_COUNT>
0

> <PUBCHEM_BOND_UDEF_STEREO_COUNT>
0

> <PUBCHEM_CACTVS_COMPLEXITY>
492

> <PUBCHEM_CACTVS_HBOND_ACCEPTOR>
2

> <PUBCHEM_CACTVS_HBOND_DONOR>
1

> <PUBCHEM_CACTVS_ROTATABLE_BOND>
1

> <PUBCHEM_CACTVS_SUBSKEYS>
AAADccB6MAAAAAAAAAAAAAAAAAAAAWAAAAA0YMEAAAAAAFiR9AAAHgAQAAAADAzBngQ8xvLJlACoA7R3RACCiCA1IiAI2aE+bNgMJvbEtZuGOWjk8BHI6YeYyPCOyAADAAAKAACQAAYAABQAAAAAAAAAAA==

> <PUBCHEM_CACTVS_TAUTO_COUNT>
6

> <PUBCHEM_CACTVS_TPSA>
42.1

> <PUBCHEM_COMPONENT_COUNT>
1

> <PUBCHEM_COMPOUND_CANONICALIZED>
1

> <PUBCHEM_COMPOUND_CID>
24747942

> <PUBCHEM_COORDINATE_TYPE>
1
5
255

> <PUBCHEM_EXACT_MASS>
311.094629

> <PUBCHEM_HEAVY_ATOM_COUNT>
24

> <PUBCHEM_ISOTOPIC_ATOM_COUNT>
0

> <PUBCHEM_IUPAC_CAS_NAME>
3-(1H-indol-5-yl)-9-xanthenone

> <PUBCHEM_IUPAC_INCHI>
InChI=1S/C21H13NO2/c23-21-16-3-1-2-4-19(16)24-20-12-14(5-7-17(20)21)13-6-8-18-15(11-13)9-10-22-18/h1-12,22H

> <PUBCHEM_IUPAC_INCHIKEY>
KHDPUEGXJWQTFK-UHFFFAOYSA-N

> <PUBCHEM_IUPAC_NAME>
3-(1H-indol-5-yl)xanthen-9-one

> <PUBCHEM_IUPAC_OPENEYE_NAME>
3-(1H-indol-5-yl)xanthen-9-one

> <PUBCHEM_IUPAC_SYSTEMATIC_NAME>
3-(1H-indol-5-yl)xanthen-9-one

> <PUBCHEM_IUPAC_TRADITIONAL_NAME>
3-(1H-indol-5-yl)xanthone

> <PUBCHEM_MOLECULAR_FORMULA>
C21H13NO2

> <PUBCHEM_MOLECULAR_WEIGHT>
311.33342

> <PUBCHEM_MONOISOTOPIC_WEIGHT>
311.094629

> <PUBCHEM_OPENEYE_CAN_SMILES>
C1=CC=C2C(=C1)C(=O)C3=C(O2)C=C(C=C3)C4=CC5=C(C=C4)NC=C5

> <PUBCHEM_OPENEYE_ISO_SMILES>
C1=CC=C2C(=C1)C(=O)C3=C(O2)C=C(C=C3)C4=CC5=C(C=C4)NC=C5

> <PUBCHEM_TOTAL_CHARGE>
0

> <PUBCHEM_XLOGP3_AA>
4.7

$$$$
Written by BCL::WriteToMDL,6862122
MBcorina  10171218483D 1   1.00000     0.00000 
CORINA 3.49 0026  01.06.2011
 46 49  0  0  0  0  0  0  0  0999 V2000
   -0.0218    1.7546    0.0117 S   0  0  0  1  0  2  0  0  0  0  0  0
   -5.4069   -0.7304    0.0499 O   0  0  0  1  0  1  0  0  0  0  0  0
  -10.8301   -5.0919    0.0818 N   0  0  0  1  0  3  0  0  0  0  0  0
  -10.9012   -3.6942    0.0897 N   0  0  0  1  0  2  0  0  0  0  0  0
   -6.7323   -3.0380    0.0514 N   0  0  0  1  0  2  0  0  0  0  0  0
   -1.2031   -2.2367    0.0011 N   0  0  0  1  0  3  0  0  0  0  0  0
   -5.3341   -2.9506    0.0382 N   0  0  0  1  0  3  0  0  0  0  0  0
   -2.4147   -2.6631    0.0107 N   0  0  0  1  0  2  0  0  0  0  0  0
   -9.5286   -5.4512    0.0668 C   0  0  0  1  0  3  0  0  0  0  0  0
   -8.7821   -4.2922    0.0653 C   0  0  0  1  0  3  0  0  0  0  0  0
   -9.6887   -3.2095    0.0800 C   0  0  0  1  0  3  0  0  0  0  0  0
  -11.9230   -5.9690    0.0936 C   0  0  0  1  0  3  0  0  0  0  0  0
   -8.9912   -6.8591    0.0546 C   0  0  0  1  0  4  0  0  0  0  0  0
   -9.3207   -1.7481    0.0834 C   0  0  0  1  0  4  0  0  0  0  0  0
   -7.3097   -4.2001    0.0513 C   0  0  0  1  0  3  0  0  0  0  0  0
  -13.0716   -5.6398    0.8010 C   0  0  0  1  0  3  0  0  0  0  0  0
  -11.8617   -7.1664   -0.6068 C   0  0  0  1  0  3  0  0  0  0  0  0
   -1.1894   -0.8716    0.0083 C   0  0  0  1  0  3  0  0  0  0  0  0
  -14.1470   -6.5064    0.8107 C   0  0  0  1  0  3  0  0  0  0  0  0
  -12.9405   -8.0287   -0.5933 C   0  0  0  1  0  3  0  0  0  0  0  0
   -3.2602   -1.6514    0.0244 C   0  0  0  1  0  3  0  0  0  0  0  0
  -14.0808   -7.7007    0.1169 C   0  0  0  1  0  3  0  0  0  0  0  0
   -2.4970   -0.4640    0.0233 C   0  0  0  1  0  3  0  0  0  0  0  0
    0.0021   -0.0041    0.0020 C   0  0  0  1  0  3  0  0  0  0  0  0
   -4.7343   -1.7436    0.0383 C   0  0  0  1  0  3  0  0  0  0  0  0
    1.2808   -0.4360   -0.0125 C   0  0  0  1  0  3  0  0  0  0  0  0
    2.2273    0.5671   -0.0162 C   0  0  0  1  0  3  0  0  0  0  0  0
    1.7358    1.8098   -0.0048 C   0  0  0  1  0  3  0  0  0  0  0  0
   -8.8721   -7.1936   -0.9759 H   0  0  0  1  0  1  0  0  0  0  0  0
   -8.0250   -6.8836    0.5585 H   0  0  0  1  0  1  0  0  0  0  0  0
   -9.6879   -7.5183    0.5724 H   0  0  0  1  0  1  0  0  0  0  0  0
   -9.2213   -1.4009    1.1118 H   0  0  0  1  0  1  0  0  0  0  0  0
   -8.3743   -1.6106   -0.4396 H   0  0  0  1  0  1  0  0  0  0  0  0
  -10.1003   -1.1760   -0.4196 H   0  0  0  1  0  1  0  0  0  0  0  0
   -6.7124   -5.0999    0.0410 H   0  0  0  1  0  1  0  0  0  0  0  0
  -13.1238   -4.7074    1.3433 H   0  0  0  1  0  1  0  0  0  0  0  0
  -10.9715   -7.4229   -1.1619 H   0  0  0  1  0  1  0  0  0  0  0  0
  -15.0405   -6.2510    1.3610 H   0  0  0  1  0  1  0  0  0  0  0  0
  -12.8934   -8.9602   -1.1378 H   0  0  0  1  0  1  0  0  0  0  0  0
   -2.8660    0.5510    0.0329 H   0  0  0  1  0  1  0  0  0  0  0  0
  -14.9229   -8.3768    0.1262 H   0  0  0  1  0  1  0  0  0  0  0  0
   -0.4143   -2.8012   -0.0060 H   0  0  0  1  0  1  0  0  0  0  0  0
   -4.7976   -3.7587    0.0290 H   0  0  0  1  0  1  0  0  0  0  0  0
    1.5420   -1.4839   -0.0203 H   0  0  0  1  0  1  0  0  0  0  0  0
    3.2878    0.3633   -0.0277 H   0  0  0  1  0  1  0  0  0  0  0  0
    2.3290    2.7123   -0.0056 H   0  0  0  1  0  1  0  0  0  0  0  0
  1 24  1  0  0  0  0
  1 28  1  0  0  0  0
  2 25  2  0  0  0  0
  3  4  1  0  0  0  0
  3  9  1  0  0  0  0
  3 12  1  0  0  0  0
  4 11  2  0  0  0  0
  5  7  1  0  0  0  0
  5 15  2  0  0  0  0
  6  8  1  0  0  0  0
  6 18  1  0  0  0  0
  6 42  1  0  0  0  0
  7 25  1  0  0  0  0
  7 43  1  0  0  0  0
  8 21  2  0  0  0  0
  9 10  2  0  0  0  0
  9 13  1  0  0  0  0
 10 11  1  0  0  0  0
 10 15  1  0  0  0  0
 11 14  1  0  0  0  0
 12 16  2  0  0  0  0
 12 17  1  0  0  0  0
 13 29  1  0  0  0  0
 13 30  1  0  0  0  0
 13 31  1  0  0  0  0
 14 32  1  0  0  0  0
 14 33  1  0  0  0  0
 14 34  1  0  0  0  0
 15 35  1  0  0  0  0
 16 19  1  0  0  0  0
 16 36  1  0  0  0  0
 17 20  2  0  0  0  0
 17 37  1  0  0  0  0
 18 23  2  0  0  0  0
 18 24  1  0  0  0  0
 19 22  2  0  0  0  0
 19 38  1  0  0  0  0
 20 22  1  0  0  0  0
 20 39  1  0  0  0  0
 21 23  1  0  0  0  0
 21 25  1  0  0  0  0
 22 41  1  0  0  0  0
 23 40  1  0  0  0  0
 24 26  2  0  0  0  0
 26 27  1  0  0  0  0
 26 44  1  0  0  0  0
 27 28  2  0  0  0  0
 27 45  1  0  0  0  0
 28 46  1  0  0  0  0
M  END
> <Activity>
2.986

> <Mapped(file=504701.csv.activities,property=Cached(PUBCHEM_COMPOUND_CID))>
2.986

> <PUBCHEM_ATOM_DEF_STEREO_COUNT>
0

> <PUBCHEM_ATOM_UDEF_STEREO_COUNT>
0

> <PUBCHEM_BONDANNOTATIONS>
1  24  8
1  28  8
10  11  8
12  16  8
12  17  8
16  19  8
17  20  8
18  23  8
19  22  8
20  22  8
21  23  8
24  26  8
26  27  8
27  28  8
3  4  8
3  9  8
4  11  8
6  18  8
6  8  8
8  21  8
9  10  8

> <PUBCHEM_BOND_DEF_STEREO_COUNT>
1

> <PUBCHEM_BOND_UDEF_STEREO_COUNT>
0

> <PUBCHEM_CACTVS_COMPLEXITY>
569

> <PUBCHEM_CACTVS_HBOND_ACCEPTOR>
5

> <PUBCHEM_CACTVS_HBOND_DONOR>
2

> <PUBCHEM_CACTVS_ROTATABLE_BOND>
5

> <PUBCHEM_CACTVS_SUBSKEYS>
AAADceB7oABAAAAAAAAAAAAAAAAAAWLEgAAwAAAAAAAAAAAB/AAAHgQYAAAADAjF3gSywZJrAAiuAzVzVACTBKAnChBauTmwZNgIYPLg1dGEpQhgmADoyYcciICKAAAAAAAAAAAAAAAAAAAAAAAAAAAAAA==

> <PUBCHEM_CACTVS_TAUTO_COUNT>
7

> <PUBCHEM_CACTVS_TPSA>
116

> <PUBCHEM_COMPONENT_COUNT>
1

> <PUBCHEM_COMPOUND_CANONICALIZED>
1

> <PUBCHEM_COMPOUND_CID>
6862122

> <PUBCHEM_COORDINATE_TYPE>
1
5
255

> <PUBCHEM_EXACT_MASS>
390.12628

> <PUBCHEM_HEAVY_ATOM_COUNT>
28

> <PUBCHEM_ISOTOPIC_ATOM_COUNT>
0

> <PUBCHEM_IUPAC_CAS_NAME>
N-[(E)-(3,5-dimethyl-1-phenyl-4-pyrazolyl)methylideneamino]-5-thiophen-2-yl-1H-pyrazole-3-carboxamide

> <PUBCHEM_IUPAC_INCHI>
InChI=1S/C20H18N6OS/c1-13-16(14(2)26(25-13)15-7-4-3-5-8-15)12-21-24-20(27)18-11-17(22-23-18)19-9-6-10-28-19/h3-12H,1-2H3,(H,22,23)(H,24,27)/b21-12+

> <PUBCHEM_IUPAC_INCHIKEY>
HHCQZRFAYCXZND-CIAFOILYSA-N

> <PUBCHEM_IUPAC_NAME>
N-[(E)-(3,5-dimethyl-1-phenylpyrazol-4-yl)methylideneamino]-5-thiophen-2-yl-1H-pyrazole-3-carboxamide

> <PUBCHEM_IUPAC_OPENEYE_NAME>
N-[(E)-(3,5-dimethyl-1-phenyl-pyrazol-4-yl)methyleneamino]-5-(2-thienyl)-1H-pyrazole-3-carboxamide

> <PUBCHEM_IUPAC_SYSTEMATIC_NAME>
N-[(E)-(3,5-dimethyl-1-phenyl-pyrazol-4-yl)methylideneamino]-5-thiophen-2-yl-1H-pyrazole-3-carboxamide

> <PUBCHEM_IUPAC_TRADITIONAL_NAME>
N-[(E)-(3,5-dimethyl-1-phenyl-pyrazol-4-yl)methyleneamino]-5-(2-thienyl)-1H-pyrazole-3-carboxamide

> <PUBCHEM_MOLECULAR_FORMULA>
C20H18N6OS

> <PUBCHEM_MOLECULAR_WEIGHT>
390.46152

> <PUBCHEM_MONOISOTOPIC_WEIGHT>
390.12628

> <PUBCHEM_OPENEYE_CAN_SMILES>
CC1=C(C(=NN1C2=CC=CC=C2)C)C=NNC(=O)C3=NNC(=C3)C4=CC=CS4

> <PUBCHEM_OPENEYE_ISO_SMILES>
CC1=C(C(=NN1C2=CC=CC=C2)C)/C=N/NC(=O)C3=NNC(=C3)C4=CC=CS4

> <PUBCHEM_TOTAL_CHARGE>
0

> <PUBCHEM_XLOGP3_AA>
3.6

$$$$
Written by BCL::WriteToMDL,3239546
MBcorina  10171218483D 1   1.00000     0.00000 
CORINA 3.49 0026  01.06.2011
 25 27  0  0  0  0  0  0  0  0999 V2000
   -0.2519    1.7474   -0.7887 S   0  0  0  1  0  2  0  0  0  0  0  0
    4.1516    2.0673   -1.0432 S   0  0  0  1  0  2  0  0  0  0  0  0
    1.4533    3.6759   -1.4361 O   0  0  0  1  0  1  0  0  0  0  0  0
   -1.1410   -0.7711    0.0084 N   0  0  0  1  0  3  0  0  0  0  0  0
    1.1741   -0.3539   -0.2010 N   0  0  0  1  0  2  0  0  0  0  0  0
    2.3182    0.3308   -0.4502 C   0  0  0  1  0  3  0  0  0  0  0  0
    2.4460    1.6464   -0.8547 C   0  0  0  1  0  3  0  0  0  0  0  0
   -0.0705    0.0457   -0.2779 C   0  0  0  1  0  3  0  0  0  0  0  0
   -2.4369   -0.2462    0.0218 C   0  0  0  1  0  3  0  0  0  0  0  0
    3.5889   -0.2902   -0.3069 C   0  0  0  1  0  3  0  0  0  0  0  0
    1.3315    2.5155   -1.0790 C   0  0  0  1  0  3  0  0  0  0  0  0
   -3.4945   -0.9905   -0.4851 C   0  0  0  1  0  3  0  0  0  0  0  0
   -2.6704    1.0182    0.5471 C   0  0  0  1  0  3  0  0  0  0  0  0
    4.6448    0.4533   -0.5704 C   0  0  0  1  0  3  0  0  0  0  0  0
   -4.7733   -0.4691   -0.4704 C   0  0  0  1  0  3  0  0  0  0  0  0
   -3.9516    1.5337    0.5588 C   0  0  0  1  0  3  0  0  0  0  0  0
   -5.0014    0.7926    0.0477 C   0  0  0  1  0  3  0  0  0  0  0  0
   -0.9962   -1.7107    0.2008 H   0  0  0  1  0  1  0  0  0  0  0  0
    3.6844   -1.3204    0.0029 H   0  0  0  1  0  1  0  0  0  0  0  0
   -3.3170   -1.9756   -0.8906 H   0  0  0  1  0  1  0  0  0  0  0  0
   -1.8510    1.5974    0.9464 H   0  0  0  1  0  1  0  0  0  0  0  0
    5.6686    0.1158   -0.5046 H   0  0  0  1  0  1  0  0  0  0  0  0
   -5.5961   -1.0472   -0.8644 H   0  0  0  1  0  1  0  0  0  0  0  0
   -4.1338    2.5167    0.9671 H   0  0  0  1  0  1  0  0  0  0  0  0
   -6.0022    1.1983    0.0574 H   0  0  0  1  0  1  0  0  0  0  0  0
  1  8  1  0  0  0  0
  1 11  1  0  0  0  0
  2  7  1  0  0  0  0
  2 14  1  0  0  0  0
  3 11  2  0  0  0  0
  4  8  1  0  0  0  0
  4  9  1  0  0  0  0
  4 18  1  0  0  0  0
  5  6  1  0  0  0  0
  5  8  2  0  0  0  0
  6  7  2  0  0  0  0
  6 10  1  0  0  0  0
  7 11  1  0  0  0  0
  9 12  2  0  0  0  0
  9 13  1  0  0  0  0
 10 14  2  0  0  0  0
 10 19  1  0  0  0  0
 12 15  1  0  0  0  0
 12 20  1  0  0  0  0
 13 16  2  0  0  0  0
 13 21  1  0  0  0  0
 14 22  1  0  0  0  0
 15 17  2  0  0  0  0
 15 23  1  0  0  0  0
 16 17  1  0  0  0  0
 16 24  1  0  0  0  0
 17 25  1  0  0  0  0
M  END
> <Activity>
2.428

> <Mapped(file=504701.csv.activities,property=Cached(PUBCHEM_COMPOUND_CID))>
2.428

> <PUBCHEM_ATOM_DEF_STEREO_COUNT>
0

> <PUBCHEM_ATOM_UDEF_STEREO_COUNT>
0

> <PUBCHEM_BONDANNOTATIONS>
1  11  8
1  8  8
10  14  8
12  15  8
13  16  8
15  17  8
16  17  8
2  14  8
2  7  8
5  6  8
5  8  8
6  10  8
6  7  8
7  11  8
9  12  8
9  13  8

> <PUBCHEM_BOND_DEF_STEREO_COUNT>
0

> <PUBCHEM_BOND_UDEF_STEREO_COUNT>
0

> <PUBCHEM_CACTVS_COMPLEXITY>
339

> <PUBCHEM_CACTVS_HBOND_ACCEPTOR>
4

> <PUBCHEM_CACTVS_HBOND_DONOR>
1

> <PUBCHEM_CACTVS_ROTATABLE_BOND>
2

> <PUBCHEM_CACTVS_SUBSKEYS>
AAADccBzIABgAAAAAAAAAAAAAAAAASAAAAAwQAAAAAAAAEABwAAAHgQQAAAACAiF0ACxwYLAAAisACRSZACDEIFlChBJiB0AZMgIIDrgnZGEIYxgkABoyUcYAAAAAAAAAAAAAAAAAAAAAAAAAAAAAAAAAA==

> <PUBCHEM_CACTVS_TAUTO_COUNT>
4

> <PUBCHEM_CACTVS_TPSA>
95

> <PUBCHEM_COMPONENT_COUNT>
1

> <PUBCHEM_COMPOUND_CANONICALIZED>
1

> <PUBCHEM_COMPOUND_CID>
3239546

> <PUBCHEM_COORDINATE_TYPE>
1
5
255

> <PUBCHEM_EXACT_MASS>
260.007805

> <PUBCHEM_HEAVY_ATOM_COUNT>
17

> <PUBCHEM_ISOTOPIC_ATOM_COUNT>
0

> <PUBCHEM_IUPAC_CAS_NAME>
2-anilino-4-thieno[3,2-d][1,3]thiazinone

> <PUBCHEM_IUPAC_INCHI>
InChI=1S/C12H8N2OS2/c15-11-10-9(6-7-16-10)14-12(17-11)13-8-4-2-1-3-5-8/h1-7H,(H,13,14)

> <PUBCHEM_IUPAC_INCHIKEY>
SPBAOJXNJONGSC-UHFFFAOYSA-N

> <PUBCHEM_IUPAC_NAME>
2-anilinothieno[3,2-d][1,3]thiazin-4-one

> <PUBCHEM_IUPAC_OPENEYE_NAME>
2-anilinothieno[3,2-d][1,3]thiazin-4-one

> <PUBCHEM_IUPAC_SYSTEMATIC_NAME>
2-phenylazanylthieno[3,2-d][1,3]thiazin-4-one

> <PUBCHEM_IUPAC_TRADITIONAL_NAME>
2-anilinothieno[3,2-d][1,3]thiazin-4-one

> <PUBCHEM_MOLECULAR_FORMULA>
C12H8N2OS2

> <PUBCHEM_MOLECULAR_WEIGHT>
260.33472

> <PUBCHEM_MONOISOTOPIC_WEIGHT>
260.007805

> <PUBCHEM_OPENEYE_CAN_SMILES>
C1=CC=C(C=C1)NC2=NC3=C(C(=O)S2)SC=C3

> <PUBCHEM_OPENEYE_ISO_SMILES>
C1=CC=C(C=C1)NC2=NC3=C(C(=O)S2)SC=C3

> <PUBCHEM_TOTAL_CHARGE>
0

> <PUBCHEM_XLOGP3_AA>
3.2

$$$$
Written by BCL::WriteToMDL,2942839
MBcorina  10171218483D 1   1.00000     0.00000 
CORINA 3.49 0026  01.06.2011
 53 55  0  0  0  0  0  0  0  0999 V2000
   -0.7288    0.5161    0.2904 S   0  0  0  1  0  4  0  0  0  0  0  0
   -0.5715   -0.8798    0.5044 O   0  0  0  1  0  1  0  0  0  0  0  0
    0.3520    1.3792   -0.0353 O   0  0  0  1  0  1  0  0  0  0  0  0
   -3.1686    2.6840    5.1903 O   0  0  0  1  0  2  0  0  0  0  0  0
   -4.2651    3.6031    7.3694 O   0  0  0  1  0  1  0  0  0  0  0  0
   -2.9576    8.9665   11.0073 O   0  5  0  1  0  1  0  0  0  0  0  0
   -4.6720    8.7626   12.2196 O   0  0  0  1  0  1  0  0  0  0  0  0
   -1.8411    0.6804   -0.9255 N   0  0  0  1  0  3  0  0  0  0  0  0
   -3.6038    5.7136    7.1943 N   0  0  0  1  0  3  0  0  0  0  0  0
   -4.0330    8.4414   11.2337 N   0  3  0  1  0  3  0  0  0  0  0  0
   -2.2525    2.0155   -1.3664 C   0  0  0  1  0  4  0  0  0  0  0  0
   -2.5059    1.9980   -2.8519 C   0  0  0  1  0  3  0  0  0  0  0  0
   -3.5336    2.4217   -0.6353 C   0  0  0  1  0  4  0  0  0  0  0  0
   -1.4594    1.1650    1.7566 C   0  0  0  1  0  3  0  0  0  0  0  0
   -2.1048    3.0648   -3.6341 C   0  0  0  1  0  3  0  0  0  0  0  0
   -3.1344    0.9126   -3.4331 C   0  0  0  1  0  3  0  0  0  0  0  0
   -2.1882    0.3364    2.5896 C   0  0  0  1  0  3  0  0  0  0  0  0
   -1.2980    2.5008    2.0752 C   0  0  0  1  0  3  0  0  0  0  0  0
   -2.6055    2.1836    4.0592 C   0  0  0  1  0  3  0  0  0  0  0  0
   -2.7615    0.8426    3.7400 C   0  0  0  1  0  3  0  0  0  0  0  0
   -1.8694    3.0119    3.2245 C   0  0  0  1  0  3  0  0  0  0  0  0
   -2.3373    3.0488   -4.9966 C   0  0  0  1  0  3  0  0  0  0  0  0
   -3.3669    0.8965   -4.7956 C   0  0  0  1  0  3  0  0  0  0  0  0
   -2.9705    1.9657   -5.5771 C   0  0  0  1  0  3  0  0  0  0  0  0
   -2.9668    4.0736    5.4555 C   0  0  0  1  0  4  0  0  0  0  0  0
   -3.6587    4.4453    6.7416 C   0  0  0  1  0  3  0  0  0  0  0  0
   -4.3361    6.0843    8.3276 C   0  0  0  1  0  3  0  0  0  0  0  0
   -3.8379    7.0492    9.1929 C   0  0  0  1  0  3  0  0  0  0  0  0
   -5.5655    5.4919    8.5863 C   0  0  0  1  0  3  0  0  0  0  0  0
   -4.5633    7.4129   10.3108 C   0  0  0  1  0  3  0  0  0  0  0  0
   -6.2857    5.8599    9.7055 C   0  0  0  1  0  3  0  0  0  0  0  0
   -5.7838    6.8169   10.5688 C   0  0  0  1  0  3  0  0  0  0  0  0
   -1.4627    2.7320   -1.1410 H   0  0  0  1  0  1  0  0  0  0  0  0
   -2.2201   -0.1074   -1.3457 H   0  0  0  1  0  1  0  0  0  0  0  0
   -3.8397    3.4151   -0.9634 H   0  0  0  1  0  1  0  0  0  0  0  0
   -4.3234    1.7052   -0.8607 H   0  0  0  1  0  1  0  0  0  0  0  0
   -3.3503    2.4344    0.4391 H   0  0  0  1  0  1  0  0  0  0  0  0
   -1.6101    3.9110   -3.1806 H   0  0  0  1  0  1  0  0  0  0  0  0
   -3.4436    0.0770   -2.8227 H   0  0  0  1  0  1  0  0  0  0  0  0
   -2.3096   -0.7075    2.3405 H   0  0  0  1  0  1  0  0  0  0  0  0
   -0.7246    3.1450    1.4253 H   0  0  0  1  0  1  0  0  0  0  0  0
   -3.3310    0.1950    4.3902 H   0  0  0  1  0  1  0  0  0  0  0  0
   -1.7434    4.0554    3.4727 H   0  0  0  1  0  1  0  0  0  0  0  0
   -2.0245    3.8826   -5.6077 H   0  0  0  1  0  1  0  0  0  0  0  0
   -3.8576    0.0484   -5.2498 H   0  0  0  1  0  1  0  0  0  0  0  0
   -3.1524    1.9533   -6.6416 H   0  0  0  1  0  1  0  0  0  0  0  0
   -1.8993    4.2750    5.5459 H   0  0  0  1  0  1  0  0  0  0  0  0
   -3.3797    4.6634    4.6372 H   0  0  0  1  0  1  0  0  0  0  0  0
   -3.0567    6.3694    6.7345 H   0  0  0  1  0  1  0  0  0  0  0  0
   -2.8842    7.5146    8.9923 H   0  0  0  1  0  1  0  0  0  0  0  0
   -5.9579    4.7445    7.9125 H   0  0  0  1  0  1  0  0  0  0  0  0
   -7.2418    5.3999    9.9070 H   0  0  0  1  0  1  0  0  0  0  0  0
   -6.3487    7.1025   11.4439 H   0  0  0  1  0  1  0  0  0  0  0  0
  1  2  2  0  0  0  0
  1  3  2  0  0  0  0
  1  8  1  0  0  0  0
  1 14  1  0  0  0  0
  4 19  1  0  0  0  0
  4 25  1  0  0  0  0
  5 26  2  0  0  0  0
  6 10  1  0  0  0  0
  7 10  2  0  0  0  0
  8 11  1  0  0  0  0
  8 34  1  0  0  0  0
  9 26  1  0  0  0  0
  9 27  1  0  0  0  0
  9 49  1  0  0  0  0
 10 30  1  0  0  0  0
 11 12  1  0  0  0  0
 11 13  1  0  0  0  0
 11 33  1  0  0  0  0
 12 15  2  0  0  0  0
 12 16  1  0  0  0  0
 13 35  1  0  0  0  0
 13 36  1  0  0  0  0
 13 37  1  0  0  0  0
 14 17  2  0  0  0  0
 14 18  1  0  0  0  0
 15 22  1  0  0  0  0
 15 38  1  0  0  0  0
 16 23  2  0  0  0  0
 16 39  1  0  0  0  0
 17 20  1  0  0  0  0
 17 40  1  0  0  0  0
 18 21  2  0  0  0  0
 18 41  1  0  0  0  0
 19 20  2  0  0  0  0
 19 21  1  0  0  0  0
 20 42  1  0  0  0  0
 21 43  1  0  0  0  0
 22 24  2  0  0  0  0
 22 44  1  0  0  0  0
 23 24  1  0  0  0  0
 23 45  1  0  0  0  0
 24 46  1  0  0  0  0
 25 26  1  0  0  0  0
 25 47  1  0  0  0  0
 25 48  1  0  0  0  0
 27 28  2  0  0  0  0
 27 29  1  0  0  0  0
 28 30  1  0  0  0  0
 28 50  1  0  0  0  0
 29 31  2  0  0  0  0
 29 51  1  0  0  0  0
 30 32  2  0  0  0  0
 31 32  1  0  0  0  0
 31 52  1  0  0  0  0
 32 53  1  0  0  0  0
M  END
> <Activity>
0.68841

> <Mapped(file=504701.csv.activities,property=Cached(PUBCHEM_COMPOUND_CID))>
0.68841

> <PUBCHEM_ATOM_DEF_STEREO_COUNT>
0

> <PUBCHEM_ATOM_UDEF_STEREO_COUNT>
1

> <PUBCHEM_BONDANNOTATIONS>
11  13  3
12  15  8
12  16  8
14  17  8
14  18  8
15  22  8
16  23  8
17  20  8
18  21  8
19  20  8
19  21  8
22  24  8
23  24  8
27  28  8
27  29  8
28  30  8
29  31  8
30  32  8
31  32  8

> <PUBCHEM_BOND_DEF_STEREO_COUNT>
0

> <PUBCHEM_BOND_UDEF_STEREO_COUNT>
0

> <PUBCHEM_CACTVS_COMPLEXITY>
721

> <PUBCHEM_CACTVS_HBOND_ACCEPTOR>
7

> <PUBCHEM_CACTVS_HBOND_DONOR>
2

> <PUBCHEM_CACTVS_ROTATABLE_BOND>
8

> <PUBCHEM_CACTVS_SUBSKEYS>
AAADceB7OABAAAAAAAAAAAAAAAAAAAAAAAAwYMAAAAAAAAABUAAAHgQUQAAADCzh2AYyx4LQRAKJAiVSU3LCCBAhIgAoiJhGbIoOJiLE8d+HOCjk1BHY6AeQwIAOAIAAAAQAAAABAAAACAAAAAAAAAAAAA==

> <PUBCHEM_CACTVS_TAUTO_COUNT>
3

> <PUBCHEM_CACTVS_TPSA>
139

> <PUBCHEM_COMPONENT_COUNT>
1

> <PUBCHEM_COMPOUND_CANONICALIZED>
1

> <PUBCHEM_COMPOUND_CID>
2942839

> <PUBCHEM_COORDINATE_TYPE>
1
5
255

> <PUBCHEM_EXACT_MASS>
455.115106

> <PUBCHEM_HEAVY_ATOM_COUNT>
32

> <PUBCHEM_ISOTOPIC_ATOM_COUNT>
0

> <PUBCHEM_IUPAC_CAS_NAME>
N-(3-nitrophenyl)-2-[4-(1-phenylethylsulfamoyl)phenoxy]acetamide

> <PUBCHEM_IUPAC_INCHI>
InChI=1S/C22H21N3O6S/c1-16(17-6-3-2-4-7-17)24-32(29,30)21-12-10-20(11-13-21)31-15-22(26)23-18-8-5-9-19(14-18)25(27)28/h2-14,16,24H,15H2,1H3,(H,23,26)

> <PUBCHEM_IUPAC_INCHIKEY>
SIKAQJWIVMKATA-UHFFFAOYSA-N

> <PUBCHEM_IUPAC_NAME>
N-(3-nitrophenyl)-2-[4-(1-phenylethylsulfamoyl)phenoxy]acetamide

> <PUBCHEM_IUPAC_OPENEYE_NAME>
N-(3-nitrophenyl)-2-[4-(1-phenylethylsulfamoyl)phenoxy]acetamide

> <PUBCHEM_IUPAC_SYSTEMATIC_NAME>
N-(3-nitrophenyl)-2-[4-(1-phenylethylsulfamoyl)phenoxy]ethanamide

> <PUBCHEM_IUPAC_TRADITIONAL_NAME>
N-(3-nitrophenyl)-2-[4-(1-phenylethylsulfamoyl)phenoxy]acetamide

> <PUBCHEM_MOLECULAR_FORMULA>
C22H21N3O6S

> <PUBCHEM_MOLECULAR_WEIGHT>
455.48364

> <PUBCHEM_MONOISOTOPIC_WEIGHT>
455.115106

> <PUBCHEM_OPENEYE_CAN_SMILES>
CC(C1=CC=CC=C1)NS(=O)(=O)C2=CC=C(C=C2)OCC(=O)NC3=CC(=CC=C3)[N+](=O)[O-]

> <PUBCHEM_OPENEYE_ISO_SMILES>
CC(C1=CC=CC=C1)NS(=O)(=O)C2=CC=C(C=C2)OCC(=O)NC3=CC(=CC=C3)[N+](=O)[O-]

> <PUBCHEM_TOTAL_CHARGE>
0

> <PUBCHEM_XLOGP3_AA>
3.5

$$$$
Written by BCL::WriteToMDL,24793679
MBcorina  10171218483D 1   1.00000     0.00000 
CORINA 3.49 0026  01.06.2011
 51 54  0  0  0  0  0  0  0  0999 V2000
   -8.6670   -1.6989   -0.3419 O   0  0  0  1  0  1  0  0  0  0  0  0
   -0.1413    0.7309   -1.7175 O   0  0  0  1  0  2  0  0  0  0  0  0
   -2.5319    0.9139   -0.9955 O   0  0  0  1  0  1  0  0  0  0  0  0
   -9.6218    0.3219   -0.2350 N   0  0  0  1  0  3  0  0  0  0  0  0
   -8.3197    2.2539   -0.0284 N   0  0  0  1  0  2  0  0  0  0  0  0
   -3.6457   -0.7089    0.0341 N   0  0  0  1  0  3  0  0  0  0  0  0
  -12.3996    1.1548    1.1843 C   0  0  0  1  0  4  0  0  0  0  0  0
  -11.6662   -0.1641    1.0087 C   0  0  0  1  0  4  0  0  0  0  0  0
  -11.4491    2.3389    1.2211 C   0  0  0  1  0  4  0  0  0  0  0  0
  -10.9763   -0.2322   -0.3522 C   0  0  0  1  0  4  0  0  0  0  0  0
  -10.7384    2.5183   -0.1179 C   0  0  0  1  0  4  0  0  0  0  0  0
   -9.4798    1.6782   -0.1267 C   0  0  0  1  0  3  0  0  0  0  0  0
   -8.5463   -0.4919   -0.2403 C   0  0  0  1  0  3  0  0  0  0  0  0
   -7.2215    0.1361   -0.1178 C   0  0  0  1  0  3  0  0  0  0  0  0
   -7.1642    1.5436   -0.0114 C   0  0  0  1  0  3  0  0  0  0  0  0
   -6.0484   -0.6140   -0.1031 C   0  0  0  1  0  3  0  0  0  0  0  0
   -5.9218    2.1719    0.1066 C   0  0  0  1  0  3  0  0  0  0  0  0
   -4.8310    0.0344    0.0169 C   0  0  0  1  0  3  0  0  0  0  0  0
   -4.7796    1.4240    0.1250 C   0  0  0  1  0  3  0  0  0  0  0  0
   -2.5309   -0.2128   -0.5382 C   0  0  0  1  0  3  0  0  0  0  0  0
   -1.3095   -1.0367   -0.6099 C   0  0  0  1  0  3  0  0  0  0  0  0
   -0.1476   -0.5248   -1.2043 C   0  0  0  1  0  3  0  0  0  0  0  0
   -1.3021   -2.3294   -0.0808 C   0  0  0  1  0  3  0  0  0  0  0  0
    0.9950   -1.3080   -1.2657 C   0  0  0  1  0  3  0  0  0  0  0  0
   -0.1574   -3.0939   -0.1505 C   0  0  0  1  0  3  0  0  0  0  0  0
    0.9869   -2.5864   -0.7433 C   0  0  0  1  0  3  0  0  0  0  0  0
    1.0786    1.1846   -2.3074 C   0  0  0  1  0  4  0  0  0  0  0  0
    0.8941    2.6118   -2.8269 C   0  0  0  1  0  4  0  0  0  0  0  0
  -13.0958    1.2855    0.3559 H   0  0  0  1  0  1  0  0  0  0  0  0
  -12.9634    1.1247    2.1167 H   0  0  0  1  0  1  0  0  0  0  0  0
  -10.9177   -0.2646    1.7947 H   0  0  0  1  0  1  0  0  0  0  0  0
  -12.3801   -0.9838    1.0892 H   0  0  0  1  0  1  0  0  0  0  0  0
  -12.0134    3.2430    1.4499 H   0  0  0  1  0  1  0  0  0  0  0  0
  -10.7055    2.1760    2.0012 H   0  0  0  1  0  1  0  0  0  0  0  0
  -11.5455    0.3480   -1.0785 H   0  0  0  1  0  1  0  0  0  0  0  0
  -10.9180   -1.2703   -0.6794 H   0  0  0  1  0  1  0  0  0  0  0  0
  -11.3964    2.1976   -0.9256 H   0  0  0  1  0  1  0  0  0  0  0  0
  -10.4771    3.5677   -0.2541 H   0  0  0  1  0  1  0  0  0  0  0  0
   -6.0878   -1.6903   -0.1841 H   0  0  0  1  0  1  0  0  0  0  0  0
   -5.8650    3.2477    0.1828 H   0  0  0  1  0  1  0  0  0  0  0  0
   -3.8226    1.9159    0.2172 H   0  0  0  1  0  1  0  0  0  0  0  0
   -3.6264   -1.5812    0.4578 H   0  0  0  1  0  1  0  0  0  0  0  0
   -2.1919   -2.7291    0.3827 H   0  0  0  1  0  1  0  0  0  0  0  0
    1.8922   -0.9180   -1.7230 H   0  0  0  1  0  1  0  0  0  0  0  0
   -0.1527   -4.0933    0.2589 H   0  0  0  1  0  1  0  0  0  0  0  0
    1.8793   -3.1926   -0.7940 H   0  0  0  1  0  1  0  0  0  0  0  0
    1.8714    1.1698   -1.5595 H   0  0  0  1  0  1  0  0  0  0  0  0
    1.3478    0.5285   -3.1352 H   0  0  0  1  0  1  0  0  0  0  0  0
    0.1013    2.6265   -3.5748 H   0  0  0  1  0  1  0  0  0  0  0  0
    0.6249    3.2678   -1.9991 H   0  0  0  1  0  1  0  0  0  0  0  0
    1.8246    2.9578   -3.2769 H   0  0  0  1  0  1  0  0  0  0  0  0
  1 13  2  0  0  0  0
  2 22  1  0  0  0  0
  2 27  1  0  0  0  0
  3 20  2  0  0  0  0
  4 10  1  0  0  0  0
  4 12  1  0  0  0  0
  4 13  1  0  0  0  0
  5 12  2  0  0  0  0
  5 15  1  0  0  0  0
  6 18  1  0  0  0  0
  6 20  1  0  0  0  0
  6 42  1  0  0  0  0
  7  8  1  0  0  0  0
  7  9  1  0  0  0  0
  7 29  1  0  0  0  0
  7 30  1  0  0  0  0
  8 10  1  0  0  0  0
  8 31  1  0  0  0  0
  8 32  1  0  0  0  0
  9 11  1  0  0  0  0
  9 33  1  0  0  0  0
  9 34  1  0  0  0  0
 10 35  1  0  0  0  0
 10 36  1  0  0  0  0
 11 12  1  0  0  0  0
 11 37  1  0  0  0  0
 11 38  1  0  0  0  0
 13 14  1  0  0  0  0
 14 15  2  0  0  0  0
 14 16  1  0  0  0  0
 15 17  1  0  0  0  0
 16 18  2  0  0  0  0
 16 39  1  0  0  0  0
 17 19  2  0  0  0  0
 17 40  1  0  0  0  0
 18 19  1  0  0  0  0
 19 41  1  0  0  0  0
 20 21  1  0  0  0  0
 21 22  1  0  0  0  0
 21 23  2  0  0  0  0
 22 24  2  0  0  0  0
 23 25  1  0  0  0  0
 23 43  1  0  0  0  0
 24 26  1  0  0  0  0
 24 44  1  0  0  0  0
 25 26  2  0  0  0  0
 25 45  1  0  0  0  0
 26 46  1  0  0  0  0
 27 28  1  0  0  0  0
 27 47  1  0  0  0  0
 27 48  1  0  0  0  0
 28 49  1  0  0  0  0
 28 50  1  0  0  0  0
 28 51  1  0  0  0  0
M  END
> <Activity>
0.41728

> <Mapped(file=504701.csv.activities,property=Cached(PUBCHEM_COMPOUND_CID))>
0.41728

> <PUBCHEM_ATOM_DEF_STEREO_COUNT>
0

> <PUBCHEM_ATOM_UDEF_STEREO_COUNT>
0

> <PUBCHEM_BONDANNOTATIONS>
13  14  8
14  15  8
14  16  8
15  17  8
16  18  8
17  19  8
18  19  8
21  22  8
21  23  8
22  24  8
23  25  8
24  26  8
25  26  8
4  12  8
4  13  8
5  12  8
5  15  8

> <PUBCHEM_BOND_DEF_STEREO_COUNT>
0

> <PUBCHEM_BOND_UDEF_STEREO_COUNT>
0

> <PUBCHEM_CACTVS_COMPLEXITY>
620

> <PUBCHEM_CACTVS_HBOND_ACCEPTOR>
4

> <PUBCHEM_CACTVS_HBOND_DONOR>
1

> <PUBCHEM_CACTVS_ROTATABLE_BOND>
4

> <PUBCHEM_CACTVS_SUBSKEYS>
AAADceB7MAAAAAAAAAAAAAAAAAAAAAAAAAAwYIAABYAAAACBQAAAHgAQAAAADAzhmAYzxoPABACoAidydACCCAElIgAJiAE+bMgMJj7E/ZuGOejm9hHI6cecyCCOAACAQAAKAAAAAQCAABQAAAAAAAAAAA==

> <PUBCHEM_CACTVS_TAUTO_COUNT>
10

> <PUBCHEM_CACTVS_TPSA>
71

> <PUBCHEM_COMPONENT_COUNT>
1

> <PUBCHEM_COMPOUND_CANONICALIZED>
1

> <PUBCHEM_COMPOUND_CID>
24793679

> <PUBCHEM_COORDINATE_TYPE>
1
5
255

> <PUBCHEM_EXACT_MASS>
377.173942

> <PUBCHEM_HEAVY_ATOM_COUNT>
28

> <PUBCHEM_ISOTOPIC_ATOM_COUNT>
0

> <PUBCHEM_IUPAC_CAS_NAME>
2-ethoxy-N-(12-oxo-7,8,9,10-tetrahydro-6H-azepino[2,1-b]quinazolin-2-yl)benzamide

> <PUBCHEM_IUPAC_INCHI>
InChI=1S/C22H23N3O3/c1-2-28-19-9-6-5-8-16(19)21(26)23-15-11-12-18-17(14-15)22(27)25-13-7-3-4-10-20(25)24-18/h5-6,8-9,11-12,14H,2-4,7,10,13H2,1H3,(H,23,26)

> <PUBCHEM_IUPAC_INCHIKEY>
QMAHTISWMMIVGZ-UHFFFAOYSA-N

> <PUBCHEM_IUPAC_NAME>
2-ethoxy-N-(12-oxo-7,8,9,10-tetrahydro-6H-azepino[2,1-b]quinazolin-2-yl)benzamide

> <PUBCHEM_IUPAC_OPENEYE_NAME>
2-ethoxy-N-(12-oxo-7,8,9,10-tetrahydro-6H-azepino[2,1-b]quinazolin-2-yl)benzamide

> <PUBCHEM_IUPAC_SYSTEMATIC_NAME>
2-ethoxy-N-(12-oxidanylidene-7,8,9,10-tetrahydro-6H-azepino[2,1-b]quinazolin-2-yl)benzamide

> <PUBCHEM_IUPAC_TRADITIONAL_NAME>
2-ethoxy-N-(12-keto-7,8,9,10-tetrahydro-6H-azepino[2,1-b]quinazolin-2-yl)benzamide

> <PUBCHEM_MOLECULAR_FORMULA>
C22H23N3O3

> <PUBCHEM_MOLECULAR_WEIGHT>
377.43632

> <PUBCHEM_MONOISOTOPIC_WEIGHT>
377.173942

> <PUBCHEM_OPENEYE_CAN_SMILES>
CCOC1=CC=CC=C1C(=O)NC2=CC3=C(C=C2)N=C4CCCCCN4C3=O

> <PUBCHEM_OPENEYE_ISO_SMILES>
CCOC1=CC=CC=C1C(=O)NC2=CC3=C(C=C2)N=C4CCCCCN4C3=O

> <PUBCHEM_TOTAL_CHARGE>
0

> <PUBCHEM_XLOGP3_AA>
2.8

$$$$
Written by BCL::WriteToMDL,3742567
MBcorina  10171218483D 1   1.00000     0.00000 
CORINA 3.49 0026  01.06.2011
 32 35  0  0  0  0  0  0  0  0999 V2000
   -0.2161    1.0524   -0.5204 N   0  0  0  1  0  3  0  0  0  0  0  0
    3.2826    0.7782   -0.6793 N   0  0  0  1  0  2  0  0  0  0  0  0
    1.4527    2.8124   -0.9644 N   0  0  0  1  0  2  0  0  0  0  0  0
   -0.1347   -0.3063   -0.2608 C   0  0  0  1  0  3  0  0  0  0  0  0
    1.2164   -0.6833   -0.2696 C   0  0  0  1  0  3  0  0  0  0  0  0
    1.9914    0.5393   -0.5547 C   0  0  0  1  0  3  0  0  0  0  0  0
    1.0436    1.5850   -0.7006 C   0  0  0  1  0  3  0  0  0  0  0  0
   -1.1071   -1.2694   -0.0135 C   0  0  0  1  0  3  0  0  0  0  0  0
    1.5742   -2.0081   -0.0331 C   0  0  0  1  0  3  0  0  0  0  0  0
   -1.4646    1.8149   -0.5986 C   0  0  0  1  0  4  0  0  0  0  0  0
   -0.7399   -2.5782    0.2201 C   0  0  0  1  0  3  0  0  0  0  0  0
    3.7035    2.0181   -0.9458 C   0  0  0  1  0  3  0  0  0  0  0  0
    2.7592    3.0668   -1.0933 C   0  0  0  1  0  3  0  0  0  0  0  0
    0.5953   -2.9486    0.2099 C   0  0  0  1  0  3  0  0  0  0  0  0
   -2.5636   -0.8824   -0.0003 C   0  0  0  1  0  4  0  0  0  0  0  0
    5.0745    2.3008   -1.0829 C   0  0  0  1  0  3  0  0  0  0  0  0
    3.2157    4.3668   -1.3736 C   0  0  0  1  0  3  0  0  0  0  0  0
    5.4776    3.5720   -1.3536 C   0  0  0  1  0  3  0  0  0  0  0  0
    4.5501    4.6020   -1.5001 C   0  0  0  1  0  3  0  0  0  0  0  0
    2.6146   -2.2981   -0.0402 H   0  0  0  1  0  1  0  0  0  0  0  0
   -1.7708    2.1144    0.4037 H   0  0  0  1  0  1  0  0  0  0  0  0
   -1.3104    2.7026   -1.2119 H   0  0  0  1  0  1  0  0  0  0  0  0
   -2.2416    1.1948   -1.0458 H   0  0  0  1  0  1  0  0  0  0  0  0
   -1.4999   -3.3211    0.4121 H   0  0  0  1  0  1  0  0  0  0  0  0
    0.8702   -3.9768    0.3933 H   0  0  0  1  0  1  0  0  0  0  0  0
   -2.9489   -0.8830   -1.0199 H   0  0  0  1  0  1  0  0  0  0  0  0
   -3.1243   -1.5984    0.6005 H   0  0  0  1  0  1  0  0  0  0  0  0
   -2.6708    0.1141    0.4281 H   0  0  0  1  0  1  0  0  0  0  0  0
    5.8044    1.5123   -0.9735 H   0  0  0  1  0  1  0  0  0  0  0  0
    2.5096    5.1760   -1.4885 H   0  0  0  1  0  1  0  0  0  0  0  0
    6.5311    3.7855   -1.4582 H   0  0  0  1  0  1  0  0  0  0  0  0
    4.8957    5.6023   -1.7155 H   0  0  0  1  0  1  0  0  0  0  0  0
  1  4  1  0  0  0  0
  1  7  1  0  0  0  0
  1 10  1  0  0  0  0
  2  6  2  0  0  0  0
  2 12  1  0  0  0  0
  3  7  2  0  0  0  0
  3 13  1  0  0  0  0
  4  5  1  0  0  0  0
  4  8  2  0  0  0  0
  5  6  1  0  0  0  0
  5  9  2  0  0  0  0
  6  7  1  0  0  0  0
  8 11  1  0  0  0  0
  8 15  1  0  0  0  0
  9 14  1  0  0  0  0
  9 20  1  0  0  0  0
 10 21  1  0  0  0  0
 10 22  1  0  0  0  0
 10 23  1  0  0  0  0
 11 14  2  0  0  0  0
 11 24  1  0  0  0  0
 12 13  1  0  0  0  0
 12 16  2  0  0  0  0
 13 17  2  0  0  0  0
 14 25  1  0  0  0  0
 15 26  1  0  0  0  0
 15 27  1  0  0  0  0
 15 28  1  0  0  0  0
 16 18  1  0  0  0  0
 16 29  1  0  0  0  0
 17 19  1  0  0  0  0
 17 30  1  0  0  0  0
 18 19  2  0  0  0  0
 18 31  1  0  0  0  0
 19 32  1  0  0  0  0
M  END
> <Activity>
1.326

> <Mapped(file=504701.csv.activities,property=Cached(PUBCHEM_COMPOUND_CID))>
1.326

> <PUBCHEM_ATOM_DEF_STEREO_COUNT>
0

> <PUBCHEM_ATOM_UDEF_STEREO_COUNT>
0

> <PUBCHEM_BONDANNOTATIONS>
1  4  8
1  7  8
11  14  8
12  13  8
12  16  8
13  17  8
16  18  8
17  19  8
18  19  8
2  12  8
2  6  8
3  13  8
3  7  8
4  5  8
4  8  8
5  6  8
5  9  8
6  7  8
8  11  8
9  14  8

> <PUBCHEM_BOND_DEF_STEREO_COUNT>
0

> <PUBCHEM_BOND_UDEF_STEREO_COUNT>
0

> <PUBCHEM_CACTVS_COMPLEXITY>
345

> <PUBCHEM_CACTVS_HBOND_ACCEPTOR>
1

> <PUBCHEM_CACTVS_HBOND_DONOR>
0

> <PUBCHEM_CACTVS_ROTATABLE_BOND>
0

> <PUBCHEM_CACTVS_SUBSKEYS>
AAADccB7AAAAAAAAAAAAAAAAAAAAAWAAAAA8YIAAAAAAAFix/gAAHAAAAAAADAiBHwQz8P8MEACgAyZiZACCgC0hEqAJ2CA4dJiIaOLA2dGUJAhogALIyCcQgMAOAAACAAACACAAAAQAAAQAQAAAAAAAAA==

> <PUBCHEM_CACTVS_TAUTO_COUNT>
1

> <PUBCHEM_CACTVS_TPSA>
30.7

> <PUBCHEM_COMPONENT_COUNT>
1

> <PUBCHEM_COMPOUND_CANONICALIZED>
1

> <PUBCHEM_COMPOUND_CID>
3742567

> <PUBCHEM_COORDINATE_TYPE>
1
5
255

> <PUBCHEM_EXACT_MASS>
247.110947

> <PUBCHEM_HEAVY_ATOM_COUNT>
19

> <PUBCHEM_ISOTOPIC_ATOM_COUNT>
0

> <PUBCHEM_IUPAC_CAS_NAME>
6,7-dimethylindolo[3,2-b]quinoxaline

> <PUBCHEM_IUPAC_INCHI>
InChI=1S/C16H13N3/c1-10-6-5-7-11-14-16(19(2)15(10)11)18-13-9-4-3-8-12(13)17-14/h3-9H,1-2H3

> <PUBCHEM_IUPAC_INCHIKEY>
MHGOQFOGBFURFZ-UHFFFAOYSA-N

> <PUBCHEM_IUPAC_NAME>
6,7-dimethylindolo[3,2-b]quinoxaline

> <PUBCHEM_IUPAC_OPENEYE_NAME>
6,7-dimethylindolo[3,2-b]quinoxaline

> <PUBCHEM_IUPAC_SYSTEMATIC_NAME>
6,7-dimethylindolo[3,2-b]quinoxaline

> <PUBCHEM_IUPAC_TRADITIONAL_NAME>
6,7-dimethylindolo[3,2-b]quinoxaline

> <PUBCHEM_MOLECULAR_FORMULA>
C16H13N3

> <PUBCHEM_MOLECULAR_WEIGHT>
247.29452

> <PUBCHEM_MONOISOTOPIC_WEIGHT>
247.110947

> <PUBCHEM_OPENEYE_CAN_SMILES>
CC1=CC=CC2=C1N(C3=NC4=CC=CC=C4N=C23)C

> <PUBCHEM_OPENEYE_ISO_SMILES>
CC1=CC=CC2=C1N(C3=NC4=CC=CC=C4N=C23)C

> <PUBCHEM_TOTAL_CHARGE>
0

> <PUBCHEM_XLOGP3_AA>
3.1

$$$$
Written by BCL::WriteToMDL,12004452
MBcorina  10171218483D 1   1.00000     0.00000 
CORINA 3.49 0026  01.06.2011
 44 46  0  0  0  0  0  0  0  0999 V2000
   -0.0164    1.3557    0.0095 O   0  0  0  1  0  2  0  0  0  0  0  0
   -2.3801   -0.0521    0.0250 O   0  0  0  1  0  2  0  0  0  0  0  0
    7.4036   -8.3144   -0.1112 O   0  0  0  1  0  1  0  0  0  0  0  0
    3.7668   -6.2204   -0.0649 N   0  0  0  1  0  3  0  0  0  0  0  0
    6.0940   -6.1634   -0.0873 N   0  0  0  1  0  2  0  0  0  0  0  0
    4.8947   -4.1808   -0.0656 N   0  0  0  1  0  2  0  0  0  0  0  0
    7.2305   -4.1215   -0.0880 N   0  0  0  1  0  3  0  0  0  0  0  0
    1.2223   -2.0776   -0.0203 C   0  0  0  1  0  3  0  0  0  0  0  0
    4.9717   -6.8692   -0.0799 C   0  0  0  1  0  3  0  0  0  0  0  0
    5.0211   -8.3364   -0.0873 C   0  0  0  1  0  3  0  0  0  0  0  0
    3.7482   -4.8496   -0.0579 C   0  0  0  1  0  3  0  0  0  0  0  0
    1.2073   -0.6779   -0.0131 C   0  0  0  1  0  3  0  0  0  0  0  0
    0.0021   -0.0041    0.0020 C   0  0  0  1  0  3  0  0  0  0  0  0
    2.5016   -2.8009   -0.0359 C   0  0  0  1  0  3  0  0  0  0  0  0
    0.0154   -2.7864   -0.0068 C   0  0  0  1  0  3  0  0  0  0  0  0
   -1.1960   -0.7174    0.0101 C   0  0  0  1  0  3  0  0  0  0  0  0
    2.5138   -4.1518   -0.0428 C   0  0  0  1  0  3  0  0  0  0  0  0
   -1.1821   -2.1060    0.0136 C   0  0  0  1  0  3  0  0  0  0  0  0
    6.2652   -9.0080   -0.1028 C   0  0  0  1  0  3  0  0  0  0  0  0
    3.8375   -9.0824   -0.0733 C   0  0  0  1  0  3  0  0  0  0  0  0
    6.0555   -4.8325   -0.0802 C   0  0  0  1  0  3  0  0  0  0  0  0
    6.2910  -10.4083   -0.1096 C   0  0  0  1  0  3  0  0  0  0  0  0
    3.8906  -10.4570   -0.0799 C   0  0  0  1  0  3  0  0  0  0  0  0
    5.1126  -11.1172   -0.1014 C   0  0  0  1  0  3  0  0  0  0  0  0
    1.2479    2.0218    0.0010 C   0  0  0  1  0  4  0  0  0  0  0  0
   -3.5694   -0.8443    0.0326 C   0  0  0  1  0  4  0  0  0  0  0  0
    2.9375   -6.7234   -0.0634 H   0  0  0  1  0  1  0  0  0  0  0  0
    2.1359   -0.1265   -0.0190 H   0  0  0  1  0  1  0  0  0  0  0  0
    3.4320   -2.2524   -0.0418 H   0  0  0  1  0  1  0  0  0  0  0  0
    0.0230   -3.8664   -0.0126 H   0  0  0  1  0  1  0  0  0  0  0  0
    1.5834   -4.7002   -0.0369 H   0  0  0  1  0  1  0  0  0  0  0  0
   -2.1128   -2.6539    0.0237 H   0  0  0  1  0  1  0  0  0  0  0  0
    2.8821   -8.5791   -0.0569 H   0  0  0  1  0  1  0  0  0  0  0  0
    7.2359  -10.9311   -0.1218 H   0  0  0  1  0  1  0  0  0  0  0  0
    2.9740  -11.0280   -0.0687 H   0  0  0  1  0  1  0  0  0  0  0  0
    5.1376  -12.1969   -0.1071 H   0  0  0  1  0  1  0  0  0  0  0  0
    8.0803   -4.5892   -0.0986 H   0  0  0  1  0  1  0  0  0  0  0  0
    7.2106   -3.1517   -0.0829 H   0  0  0  1  0  1  0  0  0  0  0  0
    1.8003    1.7413   -0.8958 H   0  0  0  1  0  1  0  0  0  0  0  0
    1.0905    3.1003    0.0083 H   0  0  0  1  0  1  0  0  0  0  0  0
    1.8173    1.7317    0.8840 H   0  0  0  1  0  1  0  0  0  0  0  0
   -3.5783   -1.4779    0.9195 H   0  0  0  1  0  1  0  0  0  0  0  0
   -4.4414   -0.1905    0.0443 H   0  0  0  1  0  1  0  0  0  0  0  0
   -3.5956   -1.4689   -0.8604 H   0  0  0  1  0  1  0  0  0  0  0  0
  1 13  1  0  0  0  0
  1 25  1  0  0  0  0
  2 16  1  0  0  0  0
  2 26  1  0  0  0  0
  3 19  2  0  0  0  0
  4  9  1  0  0  0  0
  4 11  1  0  0  0  0
  4 27  1  0  0  0  0
  5  9  1  0  0  0  0
  5 21  2  0  0  0  0
  6 11  2  0  0  0  0
  6 21  1  0  0  0  0
  7 21  1  0  0  0  0
  7 37  1  0  0  0  0
  7 38  1  0  0  0  0
  8 12  2  0  0  0  0
  8 14  1  0  0  0  0
  8 15  1  0  0  0  0
  9 10  2  0  0  0  0
 10 19  1  0  0  0  0
 10 20  1  0  0  0  0
 11 17  1  0  0  0  0
 12 13  1  0  0  0  0
 12 28  1  0  0  0  0
 13 16  2  0  0  0  0
 14 17  2  0  0  0  0
 14 29  1  0  0  0  0
 15 18  2  0  0  0  0
 15 30  1  0  0  0  0
 16 18  1  0  0  0  0
 17 31  1  0  0  0  0
 18 32  1  0  0  0  0
 19 22  1  0  0  0  0
 20 23  2  0  0  0  0
 20 33  1  0  0  0  0
 22 24  2  0  0  0  0
 22 34  1  0  0  0  0
 23 24  1  0  0  0  0
 23 35  1  0  0  0  0
 24 36  1  0  0  0  0
 25 39  1  0  0  0  0
 25 40  1  0  0  0  0
 25 41  1  0  0  0  0
 26 42  1  0  0  0  0
 26 43  1  0  0  0  0
 26 44  1  0  0  0  0
M  END
> <Activity>
2.689

> <Mapped(file=504701.csv.activities,property=Cached(PUBCHEM_COMPOUND_CID))>
2.689

> <PUBCHEM_ATOM_DEF_STEREO_COUNT>
0

> <PUBCHEM_ATOM_UDEF_STEREO_COUNT>
0

> <PUBCHEM_BONDANNOTATIONS>
12  13  8
13  16  8
15  18  8
16  18  8
8  12  8
8  15  8

> <PUBCHEM_BOND_DEF_STEREO_COUNT>
2

> <PUBCHEM_BOND_UDEF_STEREO_COUNT>
0

> <PUBCHEM_CACTVS_COMPLEXITY>
746

> <PUBCHEM_CACTVS_HBOND_ACCEPTOR>
4

> <PUBCHEM_CACTVS_HBOND_DONOR>
2

> <PUBCHEM_CACTVS_ROTATABLE_BOND>
4

> <PUBCHEM_CACTVS_SUBSKEYS>
AAADceB7sAAAAAAAAAAAAAAAAAAAAAAAAAAwQIAAAAAAAAABAAAAHgAQAAAADASBmAIzBoLABACoAqJyZACCCAEgIAAJiAEWiNiNJiKEMRqAMCIk0BMKqceAwBAOIAABAAAAQABAAAIAAACAAAAAAAAAAA==

> <PUBCHEM_CACTVS_TAUTO_COUNT>
21

> <PUBCHEM_CACTVS_TPSA>
98.3

> <PUBCHEM_COMPONENT_COUNT>
1

> <PUBCHEM_COMPOUND_CANONICALIZED>
1

> <PUBCHEM_COMPOUND_CID>
12004452

> <PUBCHEM_COORDINATE_TYPE>
1
5
255

> <PUBCHEM_EXACT_MASS>
350.13789

> <PUBCHEM_HEAVY_ATOM_COUNT>
26

> <PUBCHEM_ISOTOPIC_ATOM_COUNT>
0

> <PUBCHEM_IUPAC_CAS_NAME>
(6Z)-6-[4-amino-6-[(E)-2-(3,4-dimethoxyphenyl)ethenyl]-1H-1,3,5-triazin-2-ylidene]-1-cyclohexa-2,4-dienone

> <PUBCHEM_IUPAC_INCHI>
InChI=1S/C19H18N4O3/c1-25-15-9-7-12(11-16(15)26-2)8-10-17-21-18(23-19(20)22-17)13-5-3-4-6-14(13)24/h3-11H,1-2H3,(H3,20,21,22,23)/b10-8+,18-13-

> <PUBCHEM_IUPAC_INCHIKEY>
PEPIUVYMJRQIDX-FUIQUSNNSA-N

> <PUBCHEM_IUPAC_NAME>
(6Z)-6-[4-amino-6-[(E)-2-(3,4-dimethoxyphenyl)ethenyl]-1H-1,3,5-triazin-2-ylidene]cyclohexa-2,4-dien-1-one

> <PUBCHEM_IUPAC_OPENEYE_NAME>
(6Z)-6-[4-amino-6-[(E)-2-(3,4-dimethoxyphenyl)vinyl]-1H-1,3,5-triazin-2-ylidene]cyclohexa-2,4-dien-1-one

> <PUBCHEM_IUPAC_SYSTEMATIC_NAME>
(6Z)-6-[4-azanyl-6-[(E)-2-(3,4-dimethoxyphenyl)ethenyl]-1H-1,3,5-triazin-2-ylidene]cyclohexa-2,4-dien-1-one

> <PUBCHEM_IUPAC_TRADITIONAL_NAME>
(6Z)-6-[4-amino-6-[(E)-2-(3,4-dimethoxyphenyl)vinyl]-1H-s-triazin-2-ylidene]cyclohexa-2,4-dien-1-one

> <PUBCHEM_MOLECULAR_FORMULA>
C19H18N4O3

> <PUBCHEM_MOLECULAR_WEIGHT>
350.37122

> <PUBCHEM_MONOISOTOPIC_WEIGHT>
350.13789

> <PUBCHEM_OPENEYE_CAN_SMILES>
COC1=C(C=C(C=C1)C=CC2=NC(=NC(=C3C=CC=CC3=O)N2)N)OC

> <PUBCHEM_OPENEYE_ISO_SMILES>
COC1=C(C=C(C=C1)/C=C/C2=NC(=N/C(=C\3/C=CC=CC3=O)/N2)N)OC

> <PUBCHEM_TOTAL_CHARGE>
0

> <PUBCHEM_XLOGP3_AA>
1.7

$$$$
Written by BCL::WriteToMDL,3972218
MBcorina  10171218483D 1   1.00000     0.00000 
CORINA 3.49 0026  01.06.2011
 66 69  0  0  0  0  0  0  0  0999 V2000
   -0.9351    2.1103    2.4279 O   0  0  0  1  0  1  0  0  0  0  0  0
   -3.1768   -2.2263    1.7335 O   0  0  0  1  0  1  0  0  0  0  0  0
   -0.0319    1.2393    0.1248 N   0  0  0  1  0  3  0  0  0  0  0  0
    1.2347   -0.5339    0.2341 N   0  0  0  1  0  2  0  0  0  0  0  0
   -0.9920   -1.9942    1.4093 N   0  0  0  1  0  3  0  0  0  0  0  0
   -4.2911    4.4472    6.9004 N   0  0  0  1  0  3  0  0  0  0  0  0
   -2.6861    3.2622    1.7002 N   0  0  0  1  0  3  0  0  0  0  0  0
    0.0026   -0.1159    0.2381 C   0  0  0  1  0  3  0  0  0  0  0  0
   -1.2098   -1.0037    0.3521 C   0  0  0  1  0  4  0  0  0  0  0  0
    1.2747    1.6782    0.0461 C   0  0  0  1  0  3  0  0  0  0  0  0
   -1.2331    2.0772    0.0869 C   0  0  0  1  0  4  0  0  0  0  0  0
    2.0759    0.5257    0.1179 C   0  0  0  1  0  3  0  0  0  0  0  0
   -1.4433   -1.7214   -0.9789 C   0  0  0  1  0  4  0  0  0  0  0  0
    1.8695    2.9260   -0.0781 C   0  0  0  1  0  3  0  0  0  0  0  0
   -1.6064    2.4837    1.4892 C   0  0  0  1  0  3  0  0  0  0  0  0
    3.4662    0.6507    0.0623 C   0  0  0  1  0  3  0  0  0  0  0  0
    3.2439    3.0253   -0.1303 C   0  0  0  1  0  3  0  0  0  0  0  0
    4.0342    1.8873   -0.0608 C   0  0  0  1  0  3  0  0  0  0  0  0
   -3.8880    4.1499    5.5942 C   0  0  0  1  0  3  0  0  0  0  0  0
   -3.0900    3.5605    3.0087 C   0  0  0  1  0  3  0  0  0  0  0  0
   -2.0457   -2.5484    2.0410 C   0  0  0  1  0  3  0  0  0  0  0  0
   -5.7160    4.5762    7.2158 C   0  0  0  1  0  4  0  0  0  0  0  0
   -3.2885    4.6295    7.9529 C   0  0  0  1  0  4  0  0  0  0  0  0
   -2.5372    4.0276    5.2951 C   0  0  0  1  0  3  0  0  0  0  0  0
   -4.8387    3.9715    4.5976 C   0  0  0  1  0  3  0  0  0  0  0  0
   -2.1396    3.7338    4.0061 C   0  0  0  1  0  3  0  0  0  0  0  0
   -4.4406    3.6776    3.3086 C   0  0  0  1  0  3  0  0  0  0  0  0
   -1.8260   -3.5480    3.1079 C   0  0  0  1  0  3  0  0  0  0  0  0
   -2.8787    6.1021    8.0174 C   0  0  0  1  0  4  0  0  0  0  0  0
   -6.2728    3.2119    7.6275 C   0  0  0  1  0  4  0  0  0  0  0  0
   -2.9150   -4.1237    3.7641 C   0  0  0  1  0  3  0  0  0  0  0  0
   -0.5287   -3.9242    3.4594 C   0  0  0  1  0  3  0  0  0  0  0  0
   -2.7031   -5.0562    4.7584 C   0  0  0  1  0  3  0  0  0  0  0  0
   -0.3305   -4.8579    4.4556 C   0  0  0  1  0  3  0  0  0  0  0  0
   -1.4144   -5.4206    5.1060 C   0  0  0  1  0  3  0  0  0  0  0  0
   -2.0823   -0.3977    0.5961 H   0  0  0  1  0  1  0  0  0  0  0  0
   -1.0360    2.9681   -0.5094 H   0  0  0  1  0  1  0  0  0  0  0  0
   -2.0538    1.5156   -0.3593 H   0  0  0  1  0  1  0  0  0  0  0  0
   -0.5708   -2.3274   -1.2229 H   0  0  0  1  0  1  0  0  0  0  0  0
   -2.3202   -2.3635   -0.8964 H   0  0  0  1  0  1  0  0  0  0  0  0
   -1.6053   -0.9844   -1.7655 H   0  0  0  1  0  1  0  0  0  0  0  0
   -0.0894   -2.2512    1.6547 H   0  0  0  1  0  1  0  0  0  0  0  0
    1.2588    3.8150   -0.1341 H   0  0  0  1  0  1  0  0  0  0  0  0
    4.0909   -0.2286    0.1170 H   0  0  0  1  0  1  0  0  0  0  0  0
    3.7082    3.9956   -0.2270 H   0  0  0  1  0  1  0  0  0  0  0  0
    5.1094    1.9798   -0.1030 H   0  0  0  1  0  1  0  0  0  0  0  0
   -3.1837    3.6161    0.9465 H   0  0  0  1  0  1  0  0  0  0  0  0
   -5.8441    5.2833    8.0354 H   0  0  0  1  0  1  0  0  0  0  0  0
   -6.2513    4.9371    6.3375 H   0  0  0  1  0  1  0  0  0  0  0  0
   -3.7093    4.3271    8.9119 H   0  0  0  1  0  1  0  0  0  0  0  0
   -2.4137    4.0182    7.7311 H   0  0  0  1  0  1  0  0  0  0  0  0
   -1.7980    4.1627    6.0708 H   0  0  0  1  0  1  0  0  0  0  0  0
   -5.8893    4.0622    4.8309 H   0  0  0  1  0  1  0  0  0  0  0  0
   -1.0891    3.6426    3.7726 H   0  0  0  1  0  1  0  0  0  0  0  0
   -5.1797    3.5433    2.5327 H   0  0  0  1  0  1  0  0  0  0  0  0
   -2.4579    6.4045    7.0584 H   0  0  0  1  0  1  0  0  0  0  0  0
   -3.7535    6.7134    8.2392 H   0  0  0  1  0  1  0  0  0  0  0  0
   -2.1327    6.2377    8.8004 H   0  0  0  1  0  1  0  0  0  0  0  0
   -7.3329    3.3079    7.8622 H   0  0  0  1  0  1  0  0  0  0  0  0
   -6.1446    2.5048    6.8080 H   0  0  0  1  0  1  0  0  0  0  0  0
   -5.7375    2.8511    8.5058 H   0  0  0  1  0  1  0  0  0  0  0  0
   -3.9215   -3.8396    3.4942 H   0  0  0  1  0  1  0  0  0  0  0  0
    0.3182   -3.4857    2.9525 H   0  0  0  1  0  1  0  0  0  0  0  0
   -3.5449   -5.5025    5.2669 H   0  0  0  1  0  1  0  0  0  0  0  0
    0.6728   -5.1499    4.7285 H   0  0  0  1  0  1  0  0  0  0  0  0
   -1.2538   -6.1508    5.8854 H   0  0  0  1  0  1  0  0  0  0  0  0
  1 15  2  0  0  0  0
  2 21  2  0  0  0  0
  3  8  1  0  0  0  0
  3 10  1  0  0  0  0
  3 11  1  0  0  0  0
  4  8  2  0  0  0  0
  4 12  1  0  0  0  0
  5  9  1  0  0  0  0
  5 21  1  0  0  0  0
  5 42  1  0  0  0  0
  6 19  1  0  0  0  0
  6 22  1  0  0  0  0
  6 23  1  0  0  0  0
  7 15  1  0  0  0  0
  7 20  1  0  0  0  0
  7 47  1  0  0  0  0
  8  9  1  0  0  0  0
  9 13  1  0  0  0  0
  9 36  1  0  0  0  0
 10 12  1  0  0  0  0
 10 14  2  0  0  0  0
 11 15  1  0  0  0  0
 11 37  1  0  0  0  0
 11 38  1  0  0  0  0
 12 16  2  0  0  0  0
 13 39  1  0  0  0  0
 13 40  1  0  0  0  0
 13 41  1  0  0  0  0
 14 17  1  0  0  0  0
 14 43  1  0  0  0  0
 16 18  1  0  0  0  0
 16 44  1  0  0  0  0
 17 18  2  0  0  0  0
 17 45  1  0  0  0  0
 18 46  1  0  0  0  0
 19 24  2  0  0  0  0
 19 25  1  0  0  0  0
 20 26  2  0  0  0  0
 20 27  1  0  0  0  0
 21 28  1  0  0  0  0
 22 30  1  0  0  0  0
 22 48  1  0  0  0  0
 22 49  1  0  0  0  0
 23 29  1  0  0  0  0
 23 50  1  0  0  0  0
 23 51  1  0  0  0  0
 24 26  1  0  0  0  0
 24 52  1  0  0  0  0
 25 27  2  0  0  0  0
 25 53  1  0  0  0  0
 26 54  1  0  0  0  0
 27 55  1  0  0  0  0
 28 31  2  0  0  0  0
 28 32  1  0  0  0  0
 29 56  1  0  0  0  0
 29 57  1  0  0  0  0
 29 58  1  0  0  0  0
 30 59  1  0  0  0  0
 30 60  1  0  0  0  0
 30 61  1  0  0  0  0
 31 33  1  0  0  0  0
 31 62  1  0  0  0  0
 32 34  2  0  0  0  0
 32 63  1  0  0  0  0
 33 35  2  0  0  0  0
 33 64  1  0  0  0  0
 34 35  1  0  0  0  0
 34 65  1  0  0  0  0
 35 66  1  0  0  0  0
M  END
> <Activity>
0.10615

> <Mapped(file=504701.csv.activities,property=Cached(PUBCHEM_COMPOUND_CID))>
0.10615

> <PUBCHEM_ATOM_DEF_STEREO_COUNT>
0

> <PUBCHEM_ATOM_UDEF_STEREO_COUNT>
1

> <PUBCHEM_BONDANNOTATIONS>
10  12  8
10  14  8
12  16  8
14  17  8
16  18  8
17  18  8
19  24  8
19  25  8
20  26  8
20  27  8
24  26  8
25  27  8
28  31  8
28  32  8
3  10  8
3  8  8
31  33  8
32  34  8
33  35  8
34  35  8
4  12  8
4  8  8
9  13  3

> <PUBCHEM_BOND_DEF_STEREO_COUNT>
0

> <PUBCHEM_BOND_UDEF_STEREO_COUNT>
0

> <PUBCHEM_CACTVS_COMPLEXITY>
685

> <PUBCHEM_CACTVS_HBOND_ACCEPTOR>
3

> <PUBCHEM_CACTVS_HBOND_DONOR>
2

> <PUBCHEM_CACTVS_ROTATABLE_BOND>
9

> <PUBCHEM_CACTVS_SUBSKEYS>
AAADceB7sAAAAAAAAAAAAAAAAAAAAWAAAAAwYMAAAAAAAFgB9AAAHgAQAAAADCjBnwQz0LfMEACoAydydACCgC0lEqAJ2KG4dNiIaLLAnbGUIQholgLIyacYiACOAACAAAAAACAAAQAAAAAAQAAAAAAAAA==

> <PUBCHEM_CACTVS_TAUTO_COUNT>
6

> <PUBCHEM_CACTVS_TPSA>
79.3

> <PUBCHEM_COMPONENT_COUNT>
1

> <PUBCHEM_COMPOUND_CANONICALIZED>
1

> <PUBCHEM_COMPOUND_CID>
3972218

> <PUBCHEM_COORDINATE_TYPE>
1
5
255

> <PUBCHEM_EXACT_MASS>
469.247775

> <PUBCHEM_HEAVY_ATOM_COUNT>
35

> <PUBCHEM_ISOTOPIC_ATOM_COUNT>
0

> <PUBCHEM_IUPAC_CAS_NAME>
N-[1-[1-[2-[4-(diethylamino)anilino]-2-oxoethyl]-2-benzimidazolyl]ethyl]benzamide

> <PUBCHEM_IUPAC_INCHI>
InChI=1S/C28H31N5O2/c1-4-32(5-2)23-17-15-22(16-18-23)30-26(34)19-33-25-14-10-9-13-24(25)31-27(33)20(3)29-28(35)21-11-7-6-8-12-21/h6-18,20H,4-5,19H2,1-3H3,(H,29,35)(H,30,34)

> <PUBCHEM_IUPAC_INCHIKEY>
DGBMPKRZFCDWPY-UHFFFAOYSA-N

> <PUBCHEM_IUPAC_NAME>
N-[1-[1-[2-[4-(diethylamino)anilino]-2-oxoethyl]benzimidazol-2-yl]ethyl]benzamide

> <PUBCHEM_IUPAC_OPENEYE_NAME>
N-[1-[1-[2-[4-(diethylamino)anilino]-2-oxo-ethyl]benzimidazol-2-yl]ethyl]benzamide

> <PUBCHEM_IUPAC_SYSTEMATIC_NAME>
N-[1-[1-[2-[[4-(diethylamino)phenyl]amino]-2-oxidanylidene-ethyl]benzimidazol-2-yl]ethyl]benzamide

> <PUBCHEM_IUPAC_TRADITIONAL_NAME>
N-[1-[1-[2-[4-(diethylamino)anilino]-2-keto-ethyl]benzimidazol-2-yl]ethyl]benzamide

> <PUBCHEM_MOLECULAR_FORMULA>
C28H31N5O2

> <PUBCHEM_MOLECULAR_WEIGHT>
469.57804

> <PUBCHEM_MONOISOTOPIC_WEIGHT>
469.247775

> <PUBCHEM_OPENEYE_CAN_SMILES>
CCN(CC)C1=CC=C(C=C1)NC(=O)CN2C3=CC=CC=C3N=C2C(C)NC(=O)C4=CC=CC=C4

> <PUBCHEM_OPENEYE_ISO_SMILES>
CCN(CC)C1=CC=C(C=C1)NC(=O)CN2C3=CC=CC=C3N=C2C(C)NC(=O)C4=CC=CC=C4

> <PUBCHEM_TOTAL_CHARGE>
0

> <PUBCHEM_XLOGP3_AA>
4.5

$$$$
Written by BCL::WriteToMDL,22429402
MBcorina  10171218483D 1   1.00000     0.00000 
CORINA 3.49 0026  01.06.2011
 45 47  0  0  0  0  0  0  0  0999 V2000
    0.2781    1.6866    0.1025 S   0  0  0  1  0  4  0  0  0  0  0  0
   -0.4019    3.8398    2.2641 S   0  0  0  1  0  2  0  0  0  0  0  0
   -0.8373    8.7785   -6.6776 S   0  0  0  1  0  2  0  0  0  0  0  0
    0.3333    0.2691    0.1855 O   0  0  0  1  0  1  0  0  0  0  0  0
    1.4334    2.5029   -0.0318 O   0  0  0  1  0  1  0  0  0  0  0  0
   -0.8454    5.5984   -3.2451 O   0  0  0  1  0  1  0  0  0  0  0  0
   -0.6979    2.0418   -1.1874 N   0  0  0  1  0  3  0  0  0  0  0  0
   -3.0029    6.0036   -2.9238 N   0  0  0  1  0  3  0  0  0  0  0  0
   -1.9643    3.9921   -1.9268 C   0  0  0  1  0  4  0  0  0  0  0  0
   -2.9660    3.0249   -2.5619 C   0  0  0  1  0  4  0  0  0  0  0  0
   -0.5826    3.3322   -1.8803 C   0  0  0  1  0  4  0  0  0  0  0  0
   -3.0630    1.7506   -1.7128 C   0  0  0  1  0  4  0  0  0  0  0  0
   -1.6913    1.0701   -1.6644 C   0  0  0  1  0  4  0  0  0  0  0  0
   -1.8962    5.2552   -2.7459 C   0  0  0  1  0  3  0  0  0  0  0  0
   -0.5547    2.2379    1.5541 C   0  0  0  1  0  3  0  0  0  0  0  0
   -1.3982    1.5046    2.2821 C   0  0  0  1  0  3  0  0  0  0  0  0
   -2.9201    7.2247   -3.6020 C   0  0  0  1  0  3  0  0  0  0  0  0
   -1.9337    2.1518    3.3823 C   0  0  0  1  0  3  0  0  0  0  0  0
   -1.5252    3.4107    3.5477 C   0  0  0  1  0  3  0  0  0  0  0  0
   -2.0368    7.3721   -4.6610 C   0  0  0  1  0  3  0  0  0  0  0  0
   -3.7271    8.2892   -3.2187 C   0  0  0  1  0  3  0  0  0  0  0  0
   -1.9581    8.5855   -5.3318 C   0  0  0  1  0  3  0  0  0  0  0  0
   -3.6468    9.4953   -3.8878 C   0  0  0  1  0  3  0  0  0  0  0  0
   -2.7644    9.6477   -4.9398 C   0  0  0  1  0  3  0  0  0  0  0  0
   -1.1123   10.4953   -7.1947 C   0  0  0  1  0  4  0  0  0  0  0  0
   -2.2835    4.2324   -0.9127 H   0  0  0  1  0  1  0  0  0  0  0  0
   -3.9448    3.5013   -2.6187 H   0  0  0  1  0  1  0  0  0  0  0  0
   -2.6313    2.7627   -3.5655 H   0  0  0  1  0  1  0  0  0  0  0  0
    0.1118    3.9761   -1.3406 H   0  0  0  1  0  1  0  0  0  0  0  0
   -0.2205    3.1707   -2.8956 H   0  0  0  1  0  1  0  0  0  0  0  0
   -3.3724    2.0106   -0.7005 H   0  0  0  1  0  1  0  0  0  0  0  0
   -3.7941    1.0737   -2.1548 H   0  0  0  1  0  1  0  0  0  0  0  0
   -1.4178    0.7278   -2.6624 H   0  0  0  1  0  1  0  0  0  0  0  0
   -1.7287    0.2208   -0.9821 H   0  0  0  1  0  1  0  0  0  0  0  0
   -3.8567    5.6957   -2.5817 H   0  0  0  1  0  1  0  0  0  0  0  0
   -1.6448    0.4833    2.0320 H   0  0  0  1  0  1  0  0  0  0  0  0
   -2.6298    1.6737    4.0556 H   0  0  0  1  0  1  0  0  0  0  0  0
   -1.8363    4.0662    4.3477 H   0  0  0  1  0  1  0  0  0  0  0  0
   -1.4113    6.5451   -4.9632 H   0  0  0  1  0  1  0  0  0  0  0  0
   -4.4182    8.1733   -2.3969 H   0  0  0  1  0  1  0  0  0  0  0  0
   -4.2754   10.3206   -3.5879 H   0  0  0  1  0  1  0  0  0  0  0  0
   -2.7038   10.5920   -5.4605 H   0  0  0  1  0  1  0  0  0  0  0  0
   -0.4605   10.7302   -8.0362 H   0  0  0  1  0  1  0  0  0  0  0  0
   -2.1525   10.6223   -7.4943 H   0  0  0  1  0  1  0  0  0  0  0  0
   -0.8891   11.1651   -6.3642 H   0  0  0  1  0  1  0  0  0  0  0  0
  1  4  2  0  0  0  0
  1  5  2  0  0  0  0
  1  7  1  0  0  0  0
  1 15  1  0  0  0  0
  2 15  1  0  0  0  0
  2 19  1  0  0  0  0
  3 22  1  0  0  0  0
  3 25  1  0  0  0  0
  6 14  2  0  0  0  0
  7 11  1  0  0  0  0
  7 13  1  0  0  0  0
  8 14  1  0  0  0  0
  8 17  1  0  0  0  0
  8 35  1  0  0  0  0
  9 10  1  0  0  0  0
  9 11  1  0  0  0  0
  9 14  1  0  0  0  0
  9 26  1  0  0  0  0
 10 12  1  0  0  0  0
 10 27  1  0  0  0  0
 10 28  1  0  0  0  0
 11 29  1  0  0  0  0
 11 30  1  0  0  0  0
 12 13  1  0  0  0  0
 12 31  1  0  0  0  0
 12 32  1  0  0  0  0
 13 33  1  0  0  0  0
 13 34  1  0  0  0  0
 15 16  2  0  0  0  0
 16 18  1  0  0  0  0
 16 36  1  0  0  0  0
 17 20  2  0  0  0  0
 17 21  1  0  0  0  0
 18 19  2  0  0  0  0
 18 37  1  0  0  0  0
 19 38  1  0  0  0  0
 20 22  1  0  0  0  0
 20 39  1  0  0  0  0
 21 23  2  0  0  0  0
 21 40  1  0  0  0  0
 22 24  2  0  0  0  0
 23 24  1  0  0  0  0
 23 41  1  0  0  0  0
 24 42  1  0  0  0  0
 25 43  1  0  0  0  0
 25 44  1  0  0  0  0
 25 45  1  0  0  0  0
M  END
> <Activity>
0.54629

> <Mapped(file=504701.csv.activities,property=Cached(PUBCHEM_COMPOUND_CID))>
0.54629

> <PUBCHEM_ATOM_DEF_STEREO_COUNT>
0

> <PUBCHEM_ATOM_UDEF_STEREO_COUNT>
1

> <PUBCHEM_BONDANNOTATIONS>
15  16  8
16  18  8
17  20  8
17  21  8
18  19  8
2  15  8
2  19  8
20  22  8
21  23  8
22  24  8
23  24  8
9  14  3

> <PUBCHEM_BOND_DEF_STEREO_COUNT>
0

> <PUBCHEM_BOND_UDEF_STEREO_COUNT>
0

> <PUBCHEM_CACTVS_COMPLEXITY>
564

> <PUBCHEM_CACTVS_HBOND_ACCEPTOR>
6

> <PUBCHEM_CACTVS_HBOND_DONOR>
1

> <PUBCHEM_CACTVS_ROTATABLE_BOND>
5

> <PUBCHEM_CACTVS_SUBSKEYS>
AAADceB7MABgAAAAAAAAAAAAAAAAASAAAAA8QAAAAAAAAAABwAAAHgQQQAAADQjF0ASywYLAAAqMACVSUHDDAZAhChBIiBkIZIgIIDrg0ZGEIAxglADoyAcYAQAMAAAAACAAAAAAAAAAQAAAAAAAAAAAAA==

> <PUBCHEM_CACTVS_TAUTO_COUNT>
3

> <PUBCHEM_CACTVS_TPSA>
128

> <PUBCHEM_COMPONENT_COUNT>
1

> <PUBCHEM_COMPOUND_CANONICALIZED>
1

> <PUBCHEM_COMPOUND_CID>
22429402

> <PUBCHEM_COORDINATE_TYPE>
1
5
255

> <PUBCHEM_EXACT_MASS>
396.063606

> <PUBCHEM_HEAVY_ATOM_COUNT>
25

> <PUBCHEM_ISOTOPIC_ATOM_COUNT>
0

> <PUBCHEM_IUPAC_CAS_NAME>
N-[3-(methylthio)phenyl]-1-thiophen-2-ylsulfonyl-3-piperidinecarboxamide

> <PUBCHEM_IUPAC_INCHI>
InChI=1S/C17H20N2O3S3/c1-23-15-7-2-6-14(11-15)18-17(20)13-5-3-9-19(12-13)25(21,22)16-8-4-10-24-16/h2,4,6-8,10-11,13H,3,5,9,12H2,1H3,(H,18,20)

> <PUBCHEM_IUPAC_INCHIKEY>
LZCBNRHAAUTAMM-UHFFFAOYSA-N

> <PUBCHEM_IUPAC_NAME>
N-(3-methylsulfanylphenyl)-1-thiophen-2-ylsulfonylpiperidine-3-carboxamide

> <PUBCHEM_IUPAC_OPENEYE_NAME>
N-(3-methylsulfanylphenyl)-1-(2-thienylsulfonyl)piperidine-3-carboxamide

> <PUBCHEM_IUPAC_SYSTEMATIC_NAME>
N-(3-methylsulfanylphenyl)-1-thiophen-2-ylsulfonyl-piperidine-3-carboxamide

> <PUBCHEM_IUPAC_TRADITIONAL_NAME>
N-[3-(methylthio)phenyl]-1-(2-thienylsulfonyl)nipecotamide

> <PUBCHEM_MOLECULAR_FORMULA>
C17H20N2O3S3

> <PUBCHEM_MOLECULAR_WEIGHT>
396.5473

> <PUBCHEM_MONOISOTOPIC_WEIGHT>
396.063606

> <PUBCHEM_OPENEYE_CAN_SMILES>
CSC1=CC=CC(=C1)NC(=O)C2CCCN(C2)S(=O)(=O)C3=CC=CS3

> <PUBCHEM_OPENEYE_ISO_SMILES>
CSC1=CC=CC(=C1)NC(=O)C2CCCN(C2)S(=O)(=O)C3=CC=CS3

> <PUBCHEM_TOTAL_CHARGE>
0

> <PUBCHEM_XLOGP3_AA>
2.9

$$$$
Written by BCL::WriteToMDL,665499
MBcorina  10171218483D 1   1.00000     0.00000 
CORINA 3.49 0026  01.06.2011
 30 32  0  0  0  0  0  0  0  0999 V2000
   -0.0218    1.7547    0.0117 S   0  0  0  1  0  2  0  0  0  0  0  0
   -3.4210   -2.4977    0.0181 N   0  0  0  1  0  2  0  0  0  0  0  0
   -1.6570   -4.0304   -2.7534 N   0  0  0  1  0  2  0  0  0  0  0  0
   -4.3702   -1.3526    1.8247 N   0  0  0  1  0  3  0  0  0  0  0  0
   -2.0761    1.2087    2.6877 N   0  0  0  1  0  1  0  0  0  0  0  0
   -1.1893   -0.8716    0.0080 C   0  0  0  1  0  3  0  0  0  0  0  0
   -2.4626   -2.7086   -0.8782 C   0  0  0  1  0  3  0  0  0  0  0  0
   -1.3249   -1.9123   -0.9154 C   0  0  0  1  0  3  0  0  0  0  0  0
    0.0021   -0.0041    0.0020 C   0  0  0  1  0  3  0  0  0  0  0  0
   -2.2276   -0.6743    0.9482 C   0  0  0  1  0  3  0  0  0  0  0  0
   -3.3433   -1.5282    0.9132 C   0  0  0  1  0  3  0  0  0  0  0  0
   -2.6102   -3.8142   -1.8557 C   0  0  0  1  0  3  0  0  0  0  0  0
    1.2818   -0.4362   -0.0125 C   0  0  0  1  0  3  0  0  0  0  0  0
   -3.7483   -4.6167   -1.8243 C   0  0  0  1  0  3  0  0  0  0  0  0
    2.2273    0.5650   -0.0162 C   0  0  0  1  0  3  0  0  0  0  0  0
    1.7359    1.8095   -0.0048 C   0  0  0  1  0  3  0  0  0  0  0  0
   -3.8722   -5.6449   -2.7437 C   0  0  0  1  0  3  0  0  0  0  0  0
   -2.1431    0.3757    1.9182 C   0  0  0  1  0  2  0  0  0  0  0  0
   -1.7496   -5.0007   -3.6385 C   0  0  0  1  0  3  0  0  0  0  0  0
   -2.8526   -5.8360   -3.6645 C   0  0  0  1  0  3  0  0  0  0  0  0
   -0.5541   -2.0950   -1.6496 H   0  0  0  1  0  1  0  0  0  0  0  0
    1.5428   -1.4842   -0.0203 H   0  0  0  1  0  1  0  0  0  0  0  0
   -4.5231   -4.4398   -1.0930 H   0  0  0  1  0  1  0  0  0  0  0  0
    3.2877    0.3608   -0.0277 H   0  0  0  1  0  1  0  0  0  0  0  0
    2.3293    2.7118   -0.0056 H   0  0  0  1  0  1  0  0  0  0  0  0
   -4.7430   -6.2838   -2.7436 H   0  0  0  1  0  1  0  0  0  0  0  0
   -5.1422   -1.9395    1.8047 H   0  0  0  1  0  1  0  0  0  0  0  0
   -4.3177   -0.6425    2.4835 H   0  0  0  1  0  1  0  0  0  0  0  0
   -0.9539   -5.1467   -4.3541 H   0  0  0  1  0  1  0  0  0  0  0  0
   -2.9191   -6.6287   -4.3949 H   0  0  0  1  0  1  0  0  0  0  0  0
  1  9  1  0  0  0  0
  1 16  1  0  0  0  0
  2  7  2  0  0  0  0
  2 11  1  0  0  0  0
  3 12  1  0  0  0  0
  3 19  2  0  0  0  0
  4 11  1  0  0  0  0
  4 27  1  0  0  0  0
  4 28  1  0  0  0  0
  5 18  3  0  0  0  0
  6  8  2  0  0  0  0
  6  9  1  0  0  0  0
  6 10  1  0  0  0  0
  7  8  1  0  0  0  0
  7 12  1  0  0  0  0
  8 21  1  0  0  0  0
  9 13  2  0  0  0  0
 10 11  2  0  0  0  0
 10 18  1  0  0  0  0
 12 14  2  0  0  0  0
 13 15  1  0  0  0  0
 13 22  1  0  0  0  0
 14 17  1  0  0  0  0
 14 23  1  0  0  0  0
 15 16  2  0  0  0  0
 15 24  1  0  0  0  0
 16 25  1  0  0  0  0
 17 20  2  0  0  0  0
 17 26  1  0  0  0  0
 19 20  1  0  0  0  0
 19 29  1  0  0  0  0
 20 30  1  0  0  0  0
M  END
> <Activity>
4.738

> <Mapped(file=504701.csv.activities,property=Cached(PUBCHEM_COMPOUND_CID))>
4.738

> <PUBCHEM_ATOM_DEF_STEREO_COUNT>
0

> <PUBCHEM_ATOM_UDEF_STEREO_COUNT>
0

> <PUBCHEM_BONDANNOTATIONS>
1  16  8
1  9  8
10  11  8
12  14  8
13  15  8
14  17  8
15  16  8
17  20  8
19  20  8
2  11  8
2  7  8
3  12  8
3  19  8
6  10  8
6  8  8
7  8  8
9  13  8

> <PUBCHEM_BOND_DEF_STEREO_COUNT>
0

> <PUBCHEM_BOND_UDEF_STEREO_COUNT>
0

> <PUBCHEM_CACTVS_COMPLEXITY>
379

> <PUBCHEM_CACTVS_HBOND_ACCEPTOR>
4

> <PUBCHEM_CACTVS_HBOND_DONOR>
1

> <PUBCHEM_CACTVS_ROTATABLE_BOND>
2

> <PUBCHEM_CACTVS_SUBSKEYS>
AAADccBzgABAAAAAAAAAAAAAAAAAASAAAAAsWAAAAAAAAAAB+AAAHAQQAAAADAjFXgS9sZJIEAi0BzZnZACjgKkxCjBI2Dg4ZJiI4OLgkZGUIAhggALoyC8QgMAOgAAAAAAAAAAAAAAAAAAAAAAAAAAAAA==

> <PUBCHEM_CACTVS_TAUTO_COUNT>
2

> <PUBCHEM_CACTVS_TPSA>
104

> <PUBCHEM_COMPONENT_COUNT>
1

> <PUBCHEM_COMPOUND_CANONICALIZED>
1

> <PUBCHEM_COMPOUND_CID>
665499

> <PUBCHEM_COORDINATE_TYPE>
1
5
255

> <PUBCHEM_EXACT_MASS>
278.062617

> <PUBCHEM_HEAVY_ATOM_COUNT>
20

> <PUBCHEM_ISOTOPIC_ATOM_COUNT>
0

> <PUBCHEM_IUPAC_CAS_NAME>
2-amino-6-(2-pyridinyl)-4-thiophen-2-yl-3-pyridinecarbonitrile

> <PUBCHEM_IUPAC_INCHI>
InChI=1S/C15H10N4S/c16-9-11-10(14-5-3-7-20-14)8-13(19-15(11)17)12-4-1-2-6-18-12/h1-8H,(H2,17,19)

> <PUBCHEM_IUPAC_INCHIKEY>
FFEJFANQEWTRBW-UHFFFAOYSA-N

> <PUBCHEM_IUPAC_NAME>
2-amino-6-pyridin-2-yl-4-thiophen-2-ylpyridine-3-carbonitrile

> <PUBCHEM_IUPAC_OPENEYE_NAME>
2-amino-6-(2-pyridyl)-4-(2-thienyl)pyridine-3-carbonitrile

> <PUBCHEM_IUPAC_SYSTEMATIC_NAME>
2-azanyl-6-pyridin-2-yl-4-thiophen-2-yl-pyridine-3-carbonitrile

> <PUBCHEM_IUPAC_TRADITIONAL_NAME>
2-amino-6-(2-pyridyl)-4-(2-thienyl)nicotinonitrile

> <PUBCHEM_MOLECULAR_FORMULA>
C15H10N4S

> <PUBCHEM_MOLECULAR_WEIGHT>
278.3317

> <PUBCHEM_MONOISOTOPIC_WEIGHT>
278.062617

> <PUBCHEM_OPENEYE_CAN_SMILES>
C1=CC=NC(=C1)C2=NC(=C(C(=C2)C3=CC=CS3)C#N)N

> <PUBCHEM_OPENEYE_ISO_SMILES>
C1=CC=NC(=C1)C2=NC(=C(C(=C2)C3=CC=CS3)C#N)N

> <PUBCHEM_TOTAL_CHARGE>
0

> <PUBCHEM_XLOGP3_AA>
2.7

$$$$
Written by BCL::WriteToMDL,6305408
MBcorina  10171218483D 1   1.00000     0.00000 
CORINA 3.49 0026  01.06.2011
 47 50  0  0  0  0  0  0  0  0999 V2000
   -0.2747    3.8027   -1.6228 Cl  0  0  0  1  0  1  0  0  0  0  0  0
    0.6007    6.7758   -1.2726 Cl  0  0  0  1  0  1  0  0  0  0  0  0
   -2.3214    3.4443    1.6194 O   0  0  0  1  0  1  0  0  0  0  0  0
   -4.7461    0.8282    0.0139 O   0  0  0  1  0  1  0  0  0  0  0  0
   -0.0025    1.3264    0.0998 O   0  0  0  1  0  2  0  0  0  0  0  0
   -4.2545    4.6306    1.5846 N   0  0  0  1  0  3  0  0  0  0  0  0
   -2.5373    1.0254   -0.0625 N   0  0  0  1  0  3  0  0  0  0  0  0
   -2.3684   -0.3639    0.0013 N   0  0  0  1  0  2  0  0  0  0  0  0
   -5.4608    3.4135   -0.0928 C   0  0  0  1  0  4  0  0  0  0  0  0
   -3.9583    3.0492   -0.1200 C   0  0  0  1  0  4  0  0  0  0  0  0
   -5.4550    4.7119    0.7443 C   0  0  0  1  0  4  0  0  0  0  0  0
   -3.3942    3.7086    1.1191 C   0  0  0  1  0  3  0  0  0  0  0  0
   -5.9786    3.6713   -1.4844 C   0  0  0  1  0  3  0  0  0  0  0  0
   -3.7767    1.5548   -0.0514 C   0  0  0  1  0  3  0  0  0  0  0  0
   -7.0050    2.8984   -1.9941 C   0  0  0  1  0  3  0  0  0  0  0  0
   -5.4309    4.6844   -2.2489 C   0  0  0  1  0  3  0  0  0  0  0  0
   -7.4799    3.1349   -3.2706 C   0  0  0  1  0  3  0  0  0  0  0  0
   -5.9058    4.9209   -3.5254 C   0  0  0  1  0  3  0  0  0  0  0  0
   -6.9287    4.1445   -4.0372 C   0  0  0  1  0  3  0  0  0  0  0  0
   -1.1767   -0.8796   -0.0904 C   0  0  0  1  0  3  0  0  0  0  0  0
   -0.0002   -0.0079   -0.0965 C   0  0  0  1  0  3  0  0  0  0  0  0
    1.2589    1.7912    0.0235 C   0  0  0  1  0  3  0  0  0  0  0  0
    1.6680    3.2005    0.1837 C   0  0  0  1  0  3  0  0  0  0  0  0
    1.3014   -0.4077   -0.3044 C   0  0  0  1  0  3  0  0  0  0  0  0
    2.0956    0.7440   -0.2262 C   0  0  0  1  0  3  0  0  0  0  0  0
    1.0174    4.2064   -0.5359 C   0  0  0  1  0  3  0  0  0  0  0  0
    2.7034    3.5354    1.0596 C   0  0  0  1  0  3  0  0  0  0  0  0
    1.4060    5.5234   -0.3801 C   0  0  0  1  0  3  0  0  0  0  0  0
    3.0807    4.8539    1.2052 C   0  0  0  1  0  3  0  0  0  0  0  0
    2.4366    5.8456    0.4862 C   0  0  0  1  0  3  0  0  0  0  0  0
   -6.0423    2.6343    0.4000 H   0  0  0  1  0  1  0  0  0  0  0  0
   -3.4845    3.4513   -1.0155 H   0  0  0  1  0  1  0  0  0  0  0  0
   -6.3483    4.7634    1.3667 H   0  0  0  1  0  1  0  0  0  0  0  0
   -5.3994    5.5821    0.0902 H   0  0  0  1  0  1  0  0  0  0  0  0
   -4.0998    5.1752    2.3722 H   0  0  0  1  0  1  0  0  0  0  0  0
   -7.4357    2.1096   -1.3953 H   0  0  0  1  0  1  0  0  0  0  0  0
   -4.6322    5.2914   -1.8489 H   0  0  0  1  0  1  0  0  0  0  0  0
   -1.7622    1.6063   -0.1147 H   0  0  0  1  0  1  0  0  0  0  0  0
   -8.2814    2.5305   -3.6692 H   0  0  0  1  0  1  0  0  0  0  0  0
   -5.4782    5.7126   -4.1226 H   0  0  0  1  0  1  0  0  0  0  0  0
   -7.2995    4.3290   -5.0346 H   0  0  0  1  0  1  0  0  0  0  0  0
   -1.0557   -1.9504   -0.1620 H   0  0  0  1  0  1  0  0  0  0  0  0
    1.6438   -1.4147   -0.4919 H   0  0  0  1  0  1  0  0  0  0  0  0
    3.1682    0.7931   -0.3425 H   0  0  0  1  0  1  0  0  0  0  0  0
    3.2073    2.7633    1.6220 H   0  0  0  1  0  1  0  0  0  0  0  0
    3.8811    5.1132    1.8823 H   0  0  0  1  0  1  0  0  0  0  0  0
    2.7369    6.8763    0.6044 H   0  0  0  1  0  1  0  0  0  0  0  0
  1 26  1  0  0  0  0
  2 28  1  0  0  0  0
  3 12  2  0  0  0  0
  4 14  2  0  0  0  0
  5 21  1  0  0  0  0
  5 22  1  0  0  0  0
  6 11  1  0  0  0  0
  6 12  1  0  0  0  0
  6 35  1  0  0  0  0
  7  8  1  0  0  0  0
  7 14  1  0  0  0  0
  7 38  1  0  0  0  0
  8 20  2  0  0  0  0
  9 10  1  0  0  0  0
  9 11  1  0  0  0  0
  9 13  1  0  0  0  0
  9 31  1  0  0  0  0
 10 12  1  0  0  0  0
 10 14  1  0  0  0  0
 10 32  1  0  0  0  0
 11 33  1  0  0  0  0
 11 34  1  0  0  0  0
 13 15  2  0  0  0  0
 13 16  1  0  0  0  0
 15 17  1  0  0  0  0
 15 36  1  0  0  0  0
 16 18  2  0  0  0  0
 16 37  1  0  0  0  0
 17 19  2  0  0  0  0
 17 39  1  0  0  0  0
 18 19  1  0  0  0  0
 18 40  1  0  0  0  0
 19 41  1  0  0  0  0
 20 21  1  0  0  0  0
 20 42  1  0  0  0  0
 21 24  2  0  0  0  0
 22 23  1  0  0  0  0
 22 25  2  0  0  0  0
 23 26  2  0  0  0  0
 23 27  1  0  0  0  0
 24 25  1  0  0  0  0
 24 43  1  0  0  0  0
 25 44  1  0  0  0  0
 26 28  1  0  0  0  0
 27 29  2  0  0  0  0
 27 45  1  0  0  0  0
 28 30  2  0  0  0  0
 29 30  1  0  0  0  0
 29 46  1  0  0  0  0
 30 47  1  0  0  0  0
M  END
> <Activity>
0.64849

> <Mapped(file=504701.csv.activities,property=Cached(PUBCHEM_COMPOUND_CID))>
0.64849

> <PUBCHEM_ATOM_DEF_STEREO_COUNT>
0

> <PUBCHEM_ATOM_UDEF_STEREO_COUNT>
2

> <PUBCHEM_BONDANNOTATIONS>
10  32  3
13  15  8
13  16  8
15  17  8
16  18  8
17  19  8
18  19  8
21  24  8
22  25  8
23  26  8
23  27  8
24  25  8
26  28  8
27  29  8
28  30  8
29  30  8
5  21  8
5  22  8
9  31  3

> <PUBCHEM_BOND_DEF_STEREO_COUNT>
1

> <PUBCHEM_BOND_UDEF_STEREO_COUNT>
0

> <PUBCHEM_CACTVS_COMPLEXITY>
656

> <PUBCHEM_CACTVS_HBOND_ACCEPTOR>
4

> <PUBCHEM_CACTVS_HBOND_DONOR>
2

> <PUBCHEM_CACTVS_ROTATABLE_BOND>
5

> <PUBCHEM_CACTVS_SUBSKEYS>
AAADceB7MAAGAAAAAAAAAAAAAAAAAWJAAAAwYAAAAAAAAAAB0AAAHgIYAAAADQbBmCQwBILiBECoArFzEAQSCAAkJQAaisEuCtgMJrqN9xuGOSCk3hGIrYecyPCOgAAAIAABAAQAAABAAAIACAAAAAAAAA==

> <PUBCHEM_CACTVS_TAUTO_COUNT>
8

> <PUBCHEM_CACTVS_TPSA>
83.7

> <PUBCHEM_COMPONENT_COUNT>
1

> <PUBCHEM_COMPOUND_CANONICALIZED>
1

> <PUBCHEM_COMPOUND_CID>
6305408

> <PUBCHEM_COORDINATE_TYPE>
1
5
255

> <PUBCHEM_EXACT_MASS>
441.064697

> <PUBCHEM_HEAVY_ATOM_COUNT>
30

> <PUBCHEM_ISOTOPIC_ATOM_COUNT>
0

> <PUBCHEM_IUPAC_CAS_NAME>
N-[(Z)-[5-(2,3-dichlorophenyl)-2-furanyl]methylideneamino]-2-oxo-4-phenyl-3-pyrrolidinecarboxamide

> <PUBCHEM_IUPAC_INCHI>
InChI=1S/C22H17Cl2N3O3/c23-17-8-4-7-15(20(17)24)18-10-9-14(30-18)11-26-27-22(29)19-16(12-25-21(19)28)13-5-2-1-3-6-13/h1-11,16,19H,12H2,(H,25,28)(H,27,29)/b26-11-

> <PUBCHEM_IUPAC_INCHIKEY>
AROOAZVHDKORCX-RAWMCFOBSA-N

> <PUBCHEM_IUPAC_NAME>
N-[(Z)-[5-(2,3-dichlorophenyl)furan-2-yl]methylideneamino]-2-oxo-4-phenylpyrrolidine-3-carboxamide

> <PUBCHEM_IUPAC_OPENEYE_NAME>
N-[(Z)-[5-(2,3-dichlorophenyl)-2-furyl]methyleneamino]-2-oxo-4-phenyl-pyrrolidine-3-carboxamide

> <PUBCHEM_IUPAC_SYSTEMATIC_NAME>
N-[(Z)-[5-[2,3-bis(chloranyl)phenyl]furan-2-yl]methylideneamino]-2-oxidanylidene-4-phenyl-pyrrolidine-3-carboxamide

> <PUBCHEM_IUPAC_TRADITIONAL_NAME>
N-[(Z)-[5-(2,3-dichlorophenyl)-2-furyl]methyleneamino]-2-keto-4-phenyl-pyrrolidine-3-carboxamide

> <PUBCHEM_MOLECULAR_FORMULA>
C22H17Cl2N3O3

> <PUBCHEM_MOLECULAR_WEIGHT>
442.29468

> <PUBCHEM_MONOISOTOPIC_WEIGHT>
441.064697

> <PUBCHEM_OPENEYE_CAN_SMILES>
C1C(C(C(=O)N1)C(=O)NN=CC2=CC=C(O2)C3=C(C(=CC=C3)Cl)Cl)C4=CC=CC=C4

> <PUBCHEM_OPENEYE_ISO_SMILES>
C1C(C(C(=O)N1)C(=O)N/N=C\C2=CC=C(O2)C3=C(C(=CC=C3)Cl)Cl)C4=CC=CC=C4

> <PUBCHEM_TOTAL_CHARGE>
0

> <PUBCHEM_XLOGP3_AA>
5

$$$$
Written by BCL::WriteToMDL,2088463
MBcorina  10171218483D 1   1.00000     0.00000 
CORINA 3.49 0026  01.06.2011
 37 39  0  0  0  0  0  0  0  0999 V2000
   -4.4072   -1.5348   -2.1911 Cl  0  0  0  1  0  1  0  0  0  0  0  0
    2.1960    1.5576   -0.1014 O   0  0  0  1  0  1  0  0  0  0  0  0
   -0.0125    1.4603    0.1108 N   0  0  0  1  0  3  0  0  0  0  0  0
    1.0609    6.4008    0.0253 N   0  0  0  1  0  2  0  0  0  0  0  0
    2.3243    4.3786    0.0214 C   0  0  0  1  0  3  0  0  0  0  0  0
    1.1201    3.6293    0.0109 C   0  0  0  1  0  3  0  0  0  0  0  0
    2.2506    5.7936    0.0288 C   0  0  0  1  0  3  0  0  0  0  0  0
    0.0074   -0.0045    0.1027 C   0  0  0  1  0  4  0  0  0  0  0  0
   -0.0784    4.3307    0.0074 C   0  0  0  1  0  3  0  0  0  0  0  0
    1.1401    2.1505    0.0027 C   0  0  0  1  0  3  0  0  0  0  0  0
   -0.0601    5.7237    0.0152 C   0  0  0  1  0  3  0  0  0  0  0  0
   -1.3999   -0.5268    0.2360 C   0  0  0  1  0  3  0  0  0  0  0  0
    3.5751    3.7484    0.0241 C   0  0  0  1  0  3  0  0  0  0  0  0
    3.4436    6.5389    0.0392 C   0  0  0  1  0  3  0  0  0  0  0  0
    4.7100    4.5030    0.0341 C   0  0  0  1  0  3  0  0  0  0  0  0
    4.6423    5.8944    0.0420 C   0  0  0  1  0  3  0  0  0  0  0  0
   -1.3677    6.4729    0.0124 C   0  0  0  1  0  4  0  0  0  0  0  0
   -2.1597   -0.7611   -0.8943 C   0  0  0  1  0  3  0  0  0  0  0  0
   -1.9287   -0.7766    1.4888 C   0  0  0  1  0  3  0  0  0  0  0  0
   -3.4520   -1.2406   -0.7718 C   0  0  0  1  0  3  0  0  0  0  0  0
   -3.2193   -1.2560    1.6118 C   0  0  0  1  0  3  0  0  0  0  0  0
   -3.9824   -1.4851    0.4822 C   0  0  0  1  0  3  0  0  0  0  0  0
    0.4385   -0.3569   -0.8344 H   0  0  0  1  0  1  0  0  0  0  0  0
    0.6090   -0.3644    0.9374 H   0  0  0  1  0  1  0  0  0  0  0  0
   -1.0187    3.7996   -0.0009 H   0  0  0  1  0  1  0  0  0  0  0  0
   -0.8555    1.9335    0.1898 H   0  0  0  1  0  1  0  0  0  0  0  0
    3.6400    2.6704    0.0194 H   0  0  0  1  0  1  0  0  0  0  0  0
    3.4084    7.6183    0.0446 H   0  0  0  1  0  1  0  0  0  0  0  0
    5.6740    4.0161    0.0362 H   0  0  0  1  0  1  0  0  0  0  0  0
    5.5556    6.4708    0.0497 H   0  0  0  1  0  1  0  0  0  0  0  0
   -1.6773    6.6595   -1.0159 H   0  0  0  1  0  1  0  0  0  0  0  0
   -2.1282    5.8783    0.5186 H   0  0  0  1  0  1  0  0  0  0  0  0
   -1.2434    7.4227    0.5325 H   0  0  0  1  0  1  0  0  0  0  0  0
   -1.7452   -0.5698   -1.8730 H   0  0  0  1  0  1  0  0  0  0  0  0
   -1.3330   -0.5975    2.3717 H   0  0  0  1  0  1  0  0  0  0  0  0
   -3.6316   -1.4513    2.5907 H   0  0  0  1  0  1  0  0  0  0  0  0
   -4.9910   -1.8590    0.5785 H   0  0  0  1  0  1  0  0  0  0  0  0
  1 20  1  0  0  0  0
  2 10  2  0  0  0  0
  3  8  1  0  0  0  0
  3 10  1  0  0  0  0
  3 26  1  0  0  0  0
  4  7  1  0  0  0  0
  4 11  2  0  0  0  0
  5  6  1  0  0  0  0
  5  7  1  0  0  0  0
  5 13  2  0  0  0  0
  6  9  2  0  0  0  0
  6 10  1  0  0  0  0
  7 14  2  0  0  0  0
  8 12  1  0  0  0  0
  8 23  1  0  0  0  0
  8 24  1  0  0  0  0
  9 11  1  0  0  0  0
  9 25  1  0  0  0  0
 11 17  1  0  0  0  0
 12 18  2  0  0  0  0
 12 19  1  0  0  0  0
 13 15  1  0  0  0  0
 13 27  1  0  0  0  0
 14 16  1  0  0  0  0
 14 28  1  0  0  0  0
 15 16  2  0  0  0  0
 15 29  1  0  0  0  0
 16 30  1  0  0  0  0
 17 31  1  0  0  0  0
 17 32  1  0  0  0  0
 17 33  1  0  0  0  0
 18 20  1  0  0  0  0
 18 34  1  0  0  0  0
 19 21  2  0  0  0  0
 19 35  1  0  0  0  0
 20 22  2  0  0  0  0
 21 22  1  0  0  0  0
 21 36  1  0  0  0  0
 22 37  1  0  0  0  0
M  END
> <Activity>
0.976

> <Mapped(file=504701.csv.activities,property=Cached(PUBCHEM_COMPOUND_CID))>
0.976

> <PUBCHEM_ATOM_DEF_STEREO_COUNT>
0

> <PUBCHEM_ATOM_UDEF_STEREO_COUNT>
0

> <PUBCHEM_BONDANNOTATIONS>
12  18  8
12  19  8
13  15  8
14  16  8
15  16  8
18  20  8
19  21  8
20  22  8
21  22  8
4  11  8
4  7  8
5  13  8
5  6  8
5  7  8
6  9  8
7  14  8
9  11  8

> <PUBCHEM_BOND_DEF_STEREO_COUNT>
0

> <PUBCHEM_BOND_UDEF_STEREO_COUNT>
0

> <PUBCHEM_CACTVS_COMPLEXITY>
389

> <PUBCHEM_CACTVS_HBOND_ACCEPTOR>
2

> <PUBCHEM_CACTVS_HBOND_DONOR>
1

> <PUBCHEM_CACTVS_ROTATABLE_BOND>
3

> <PUBCHEM_CACTVS_SUBSKEYS>
AAADccB7IAAEAAAAAAAAAAAAAAAAAAAAAAA8YIAAAAAAAACx9AAAHgIQAAAADArBniQywPLIEACoAyVyVACCgCAlByAImKE4ZtgIIPLBl5GEIQhghgDIyYcciMCOgAAAIAACAAAAAABAAAQAAAAAAAAAAA==

> <PUBCHEM_CACTVS_TAUTO_COUNT>
2

> <PUBCHEM_CACTVS_TPSA>
42

> <PUBCHEM_COMPONENT_COUNT>
1

> <PUBCHEM_COMPOUND_CANONICALIZED>
1

> <PUBCHEM_COMPOUND_CID>
2088463

> <PUBCHEM_COORDINATE_TYPE>
1
5
255

> <PUBCHEM_EXACT_MASS>
310.087291

> <PUBCHEM_HEAVY_ATOM_COUNT>
22

> <PUBCHEM_ISOTOPIC_ATOM_COUNT>
0

> <PUBCHEM_IUPAC_CAS_NAME>
N-[(3-chlorophenyl)methyl]-2-methyl-4-quinolinecarboxamide

> <PUBCHEM_IUPAC_INCHI>
InChI=1S/C18H15ClN2O/c1-12-9-16(15-7-2-3-8-17(15)21-12)18(22)20-11-13-5-4-6-14(19)10-13/h2-10H,11H2,1H3,(H,20,22)

> <PUBCHEM_IUPAC_INCHIKEY>
YMYULYHWDTUSIS-UHFFFAOYSA-N

> <PUBCHEM_IUPAC_NAME>
N-[(3-chlorophenyl)methyl]-2-methylquinoline-4-carboxamide

> <PUBCHEM_IUPAC_OPENEYE_NAME>
N-[(3-chlorophenyl)methyl]-2-methyl-quinoline-4-carboxamide

> <PUBCHEM_IUPAC_SYSTEMATIC_NAME>
N-[(3-chlorophenyl)methyl]-2-methyl-quinoline-4-carboxamide

> <PUBCHEM_IUPAC_TRADITIONAL_NAME>
N-(3-chlorobenzyl)-2-methyl-cinchoninamide

> <PUBCHEM_MOLECULAR_FORMULA>
C18H15ClN2O

> <PUBCHEM_MOLECULAR_WEIGHT>
310.7775

> <PUBCHEM_MONOISOTOPIC_WEIGHT>
310.087291

> <PUBCHEM_OPENEYE_CAN_SMILES>
CC1=NC2=CC=CC=C2C(=C1)C(=O)NCC3=CC(=CC=C3)Cl

> <PUBCHEM_OPENEYE_ISO_SMILES>
CC1=NC2=CC=CC=C2C(=C1)C(=O)NCC3=CC(=CC=C3)Cl

> <PUBCHEM_TOTAL_CHARGE>
0

> <PUBCHEM_XLOGP3_AA>
4

$$$$
Written by BCL::WriteToMDL,2212701
MBcorina  10171218483D 1   1.00000     0.00000 
CORINA 3.49 0026  01.06.2011
 47 51  0  0  0  0  0  0  0  0999 V2000
   -0.0219    1.7636    0.0117 S   0  0  0  1  0  2  0  0  0  0  0  0
    2.7064   -2.8104   -0.0402 S   0  0  0  1  0  2  0  0  0  0  0  0
    5.8912   -8.8895   -0.1073 S   0  0  0  1  0  2  0  0  0  0  0  0
    4.2206   -5.1620   -0.0686 O   0  0  0  1  0  1  0  0  0  0  0  0
    1.3221   -0.3641   -0.0125 N   0  0  0  1  0  3  0  0  0  0  0  0
   -0.7212   -1.0922    0.0034 N   0  0  0  1  0  2  0  0  0  0  0  0
    0.0478   -2.1224   -0.0092 N   0  0  0  1  0  2  0  0  0  0  0  0
    2.7409   -6.8151   -0.0633 N   0  0  0  1  0  3  0  0  0  0  0  0
    3.4705   -9.0609   -0.0833 N   0  0  0  1  0  2  0  0  0  0  0  0
    5.0148   -7.4336   -0.0899 N   0  0  0  1  0  2  0  0  0  0  0  0
    2.2237    0.6832   -0.0155 C   0  0  0  1  0  3  0  0  0  0  0  0
    3.6803    0.4313   -0.0312 C   0  0  0  1  0  3  0  0  0  0  0  0
    0.0021   -0.0041    0.0020 C   0  0  0  1  0  3  0  0  0  0  0  0
    1.3013   -1.7475   -0.0202 C   0  0  0  1  0  3  0  0  0  0  0  0
    1.7426    1.9300   -0.0042 C   0  0  0  1  0  3  0  0  0  0  0  0
    4.4688    0.8084    1.0572 C   0  0  0  1  0  3  0  0  0  0  0  0
    4.2725   -0.1899   -1.1322 C   0  0  0  1  0  3  0  0  0  0  0  0
    6.4088   -0.0414   -0.0603 C   0  0  0  1  0  3  0  0  0  0  0  0
    5.8274    0.5700    1.0363 C   0  0  0  1  0  3  0  0  0  0  0  0
    5.6322   -0.4224   -1.1403 C   0  0  0  1  0  3  0  0  0  0  0  0
    1.9656   -4.4662   -0.0422 C   0  0  0  1  0  4  0  0  0  0  0  0
    7.8936   -0.2986   -0.0762 C   0  0  0  1  0  4  0  0  0  0  0  0
    3.0573   -5.5050   -0.0590 C   0  0  0  1  0  3  0  0  0  0  0  0
    4.4461  -11.3728   -0.1071 C   0  0  0  1  0  3  0  0  0  0  0  0
    4.4918   -9.8945   -0.0986 C   0  0  0  1  0  3  0  0  0  0  0  0
    3.7532   -7.7783   -0.0788 C   0  0  0  1  0  3  0  0  0  0  0  0
    5.6305  -12.1103   -0.1235 C   0  0  0  1  0  3  0  0  0  0  0  0
    3.2185  -12.0359   -0.0929 C   0  0  0  1  0  3  0  0  0  0  0  0
    5.5811  -13.4891   -0.1314 C   0  0  0  1  0  3  0  0  0  0  0  0
    3.1827  -13.4151   -0.1009 C   0  0  0  1  0  3  0  0  0  0  0  0
    4.3606  -14.1405   -0.1235 C   0  0  0  1  0  3  0  0  0  0  0  0
    2.3110    2.8483   -0.0050 H   0  0  0  1  0  1  0  0  0  0  0  0
    4.0162    1.2860    1.9137 H   0  0  0  1  0  1  0  0  0  0  0  0
    3.6674   -0.4881   -1.9756 H   0  0  0  1  0  1  0  0  0  0  0  0
    6.4386    0.8616    1.8776 H   0  0  0  1  0  1  0  0  0  0  0  0
    6.0916   -0.9033   -1.9913 H   0  0  0  1  0  1  0  0  0  0  0  0
    1.3571   -4.5931    0.8532 H   0  0  0  1  0  1  0  0  0  0  0  0
    1.3393   -4.5830   -0.9267 H   0  0  0  1  0  1  0  0  0  0  0  0
    8.0968   -1.2807    0.3509 H   0  0  0  1  0  1  0  0  0  0  0  0
    8.2569   -0.2669   -1.1033 H   0  0  0  1  0  1  0  0  0  0  0  0
    8.4010    0.4656    0.5125 H   0  0  0  1  0  1  0  0  0  0  0  0
    1.8105   -7.0893   -0.0555 H   0  0  0  1  0  1  0  0  0  0  0  0
    6.5839  -11.6029   -0.1304 H   0  0  0  1  0  1  0  0  0  0  0  0
    2.2984  -11.4707   -0.0753 H   0  0  0  1  0  1  0  0  0  0  0  0
    6.4971  -14.0611   -0.1441 H   0  0  0  1  0  1  0  0  0  0  0  0
    2.2332  -13.9295   -0.0896 H   0  0  0  1  0  1  0  0  0  0  0  0
    4.3272  -15.2200   -0.1304 H   0  0  0  1  0  1  0  0  0  0  0  0
  1 13  1  0  0  0  0
  1 15  1  0  0  0  0
  2 14  1  0  0  0  0
  2 21  1  0  0  0  0
  3 10  1  0  0  0  0
  3 25  1  0  0  0  0
  4 23  2  0  0  0  0
  5 11  1  0  0  0  0
  5 13  1  0  0  0  0
  5 14  1  0  0  0  0
  6  7  1  0  0  0  0
  6 13  2  0  0  0  0
  7 14  2  0  0  0  0
  8 23  1  0  0  0  0
  8 26  1  0  0  0  0
  8 42  1  0  0  0  0
  9 25  2  0  0  0  0
  9 26  1  0  0  0  0
 10 26  2  0  0  0  0
 11 12  1  0  0  0  0
 11 15  2  0  0  0  0
 12 16  2  0  0  0  0
 12 17  1  0  0  0  0
 15 32  1  0  0  0  0
 16 19  1  0  0  0  0
 16 33  1  0  0  0  0
 17 20  2  0  0  0  0
 17 34  1  0  0  0  0
 18 19  2  0  0  0  0
 18 20  1  0  0  0  0
 18 22  1  0  0  0  0
 19 35  1  0  0  0  0
 20 36  1  0  0  0  0
 21 23  1  0  0  0  0
 21 37  1  0  0  0  0
 21 38  1  0  0  0  0
 22 39  1  0  0  0  0
 22 40  1  0  0  0  0
 22 41  1  0  0  0  0
 24 25  1  0  0  0  0
 24 27  2  0  0  0  0
 24 28  1  0  0  0  0
 27 29  1  0  0  0  0
 27 43  1  0  0  0  0
 28 30  2  0  0  0  0
 28 44  1  0  0  0  0
 29 31  2  0  0  0  0
 29 45  1  0  0  0  0
 30 31  1  0  0  0  0
 30 46  1  0  0  0  0
 31 47  1  0  0  0  0
M  END
> <Activity>
2.526

> <Mapped(file=504701.csv.activities,property=Cached(PUBCHEM_COMPOUND_CID))>
2.526

> <PUBCHEM_ATOM_DEF_STEREO_COUNT>
0

> <PUBCHEM_ATOM_UDEF_STEREO_COUNT>
0

> <PUBCHEM_BONDANNOTATIONS>
1  13  8
1  15  8
10  26  8
11  15  8
12  16  8
12  17  8
16  19  8
17  20  8
18  19  8
18  20  8
24  27  8
24  28  8
27  29  8
28  30  8
29  31  8
3  10  8
3  25  8
30  31  8
5  11  8
5  13  8
5  14  8
6  13  8
6  7  8
7  14  8
9  25  8
9  26  8

> <PUBCHEM_BOND_DEF_STEREO_COUNT>
0

> <PUBCHEM_BOND_UDEF_STEREO_COUNT>
0

> <PUBCHEM_CACTVS_COMPLEXITY>
616

> <PUBCHEM_CACTVS_HBOND_ACCEPTOR>
4

> <PUBCHEM_CACTVS_HBOND_DONOR>
1

> <PUBCHEM_CACTVS_ROTATABLE_BOND>
6

> <PUBCHEM_CACTVS_SUBSKEYS>
AAADceB7oABgAAAAAAAAAAAAAAAAAWLFgAAwYAAAAAAWAAAB/AAAHgQYQAAADAiF3gCzkZfMGAiuAyVydACS8KthCrgNiDQwJJiIKKKgmRGEIAhokQIIiCcQgMAOQAAAAAAAAACAAAAAAAAAAAAAAAAAAA==

> <PUBCHEM_CACTVS_TAUTO_COUNT>
5

> <PUBCHEM_CACTVS_TPSA>
167

> <PUBCHEM_COMPONENT_COUNT>
1

> <PUBCHEM_COMPOUND_CANONICALIZED>
1

> <PUBCHEM_COMPOUND_CID>
2212701

> <PUBCHEM_COORDINATE_TYPE>
1
5
255

> <PUBCHEM_EXACT_MASS>
464.054772

> <PUBCHEM_HEAVY_ATOM_COUNT>
31

> <PUBCHEM_ISOTOPIC_ATOM_COUNT>
0

> <PUBCHEM_IUPAC_CAS_NAME>
2-[[5-(4-methylphenyl)-3-thiazolo[2,3-c][1,2,4]triazolyl]thio]-N-(5-phenyl-1,2,4-thiadiazol-3-yl)acetamide

> <PUBCHEM_IUPAC_INCHI>
InChI=1S/C21H16N6OS3/c1-13-7-9-14(10-8-13)16-11-29-20-24-25-21(27(16)20)30-12-17(28)22-19-23-18(31-26-19)15-5-3-2-4-6-15/h2-11H,12H2,1H3,(H,22,26,28)

> <PUBCHEM_IUPAC_INCHIKEY>
RQCMBGOLKWZWSI-UHFFFAOYSA-N

> <PUBCHEM_IUPAC_NAME>
2-[[5-(4-methylphenyl)-[1,3]thiazolo[2,3-c][1,2,4]triazol-3-yl]sulfanyl]-N-(5-phenyl-1,2,4-thiadiazol-3-yl)acetamide

> <PUBCHEM_IUPAC_OPENEYE_NAME>
N-(5-phenyl-1,2,4-thiadiazol-3-yl)-2-[5-(p-tolyl)thiazolo[2,3-c][1,2,4]triazol-3-yl]sulfanyl-acetamide

> <PUBCHEM_IUPAC_SYSTEMATIC_NAME>
2-[[5-(4-methylphenyl)-[1,3]thiazolo[2,3-c][1,2,4]triazol-3-yl]sulfanyl]-N-(5-phenyl-1,2,4-thiadiazol-3-yl)ethanamide

> <PUBCHEM_IUPAC_TRADITIONAL_NAME>
N-(5-phenyl-1,2,4-thiadiazol-3-yl)-2-[[5-(p-tolyl)thiazolo[2,3-c][1,2,4]triazol-3-yl]thio]acetamide

> <PUBCHEM_MOLECULAR_FORMULA>
C21H16N6OS3

> <PUBCHEM_MOLECULAR_WEIGHT>
464.58634

> <PUBCHEM_MONOISOTOPIC_WEIGHT>
464.054772

> <PUBCHEM_OPENEYE_CAN_SMILES>
CC1=CC=C(C=C1)C2=CSC3=NN=C(N23)SCC(=O)NC4=NSC(=N4)C5=CC=CC=C5

> <PUBCHEM_OPENEYE_ISO_SMILES>
CC1=CC=C(C=C1)C2=CSC3=NN=C(N23)SCC(=O)NC4=NSC(=N4)C5=CC=CC=C5

> <PUBCHEM_TOTAL_CHARGE>
0

> <PUBCHEM_XLOGP3_AA>
5.9

$$$$
Written by BCL::WriteToMDL,5367074
MBcorina  10171218483D 1   1.00000     0.00000 
CORINA 3.49 0026  01.06.2011
 33 34  0  0  0  0  0  0  0  0999 V2000
   -0.8296   -2.2680    3.3801 O   0  0  0  1  0  1  0  0  0  0  0  0
    0.6503   -4.2678   -2.3147 O   0  5  0  1  0  1  0  0  0  0  0  0
    0.4120   -6.1015   -1.2992 O   0  0  0  1  0  1  0  0  0  0  0  0
   -0.0169    1.3968    0.0097 N   0  0  0  1  0  3  0  0  0  0  0  0
    0.0021   -0.0041    0.0020 N   0  0  0  1  0  3  0  0  0  0  0  0
    0.3957   -4.8836   -1.2951 N   0  3  0  1  0  3  0  0  0  0  0  0
    1.1831    2.1115    0.0021 C   0  0  0  1  0  3  0  0  0  0  0  0
   -0.2598   -2.0817    1.1155 C   0  0  0  1  0  3  0  0  0  0  0  0
   -0.2787   -0.6848    1.1231 C   0  0  0  1  0  3  0  0  0  0  0  0
    0.0529   -2.7929   -0.0638 C   0  0  0  1  0  3  0  0  0  0  0  0
   -1.2955    2.1120    0.0197 C   0  0  0  1  0  4  0  0  0  0  0  0
    1.1660    3.5005    0.0097 C   0  0  0  1  0  3  0  0  0  0  0  0
    2.3962    1.4350   -0.0074 C   0  0  0  1  0  3  0  0  0  0  0  0
   -0.5586   -2.8432    2.3351 C   0  0  0  1  0  3  0  0  0  0  0  0
    0.0666   -4.1520   -0.0511 C   0  0  0  1  0  3  0  0  0  0  0  0
   -0.5260   -4.2470    2.2758 C   0  0  0  1  0  3  0  0  0  0  0  0
   -0.2222   -4.8715    1.1049 C   0  0  0  1  0  3  0  0  0  0  0  0
    2.3544    4.2042    0.0021 C   0  0  0  1  0  3  0  0  0  0  0  0
    3.5809    2.1448   -0.0149 C   0  0  0  1  0  3  0  0  0  0  0  0
    3.5603    3.5275   -0.0135 C   0  0  0  1  0  3  0  0  0  0  0  0
    0.2183   -0.4817   -0.8141 H   0  0  0  1  0  1  0  0  0  0  0  0
   -0.5195   -0.1530    2.0318 H   0  0  0  1  0  1  0  0  0  0  0  0
    0.2804   -2.2580   -0.9741 H   0  0  0  1  0  1  0  0  0  0  0  0
   -1.6077    2.2837    1.0498 H   0  0  0  1  0  1  0  0  0  0  0  0
   -1.1805    3.0688   -0.4895 H   0  0  0  1  0  1  0  0  0  0  0  0
   -2.0495    1.5154   -0.4938 H   0  0  0  1  0  1  0  0  0  0  0  0
    0.2246    4.0296    0.0212 H   0  0  0  1  0  1  0  0  0  0  0  0
    2.4130    0.3551   -0.0085 H   0  0  0  1  0  1  0  0  0  0  0  0
   -0.7423   -4.8301    3.1587 H   0  0  0  1  0  1  0  0  0  0  0  0
   -0.2009   -5.9509    1.0732 H   0  0  0  1  0  1  0  0  0  0  0  0
    2.3418    5.2841    0.0080 H   0  0  0  1  0  1  0  0  0  0  0  0
    4.5244    1.6194   -0.0220 H   0  0  0  1  0  1  0  0  0  0  0  0
    4.4881    4.0802   -0.0198 H   0  0  0  1  0  1  0  0  0  0  0  0
  1 14  2  0  0  0  0
  2  6  1  0  0  0  0
  3  6  2  0  0  0  0
  4  5  1  0  0  0  0
  4  7  1  0  0  0  0
  4 11  1  0  0  0  0
  5  9  1  0  0  0  0
  5 21  1  0  0  0  0
  6 15  1  0  0  0  0
  7 12  2  0  0  0  0
  7 13  1  0  0  0  0
  8  9  2  0  0  0  0
  8 10  1  0  0  0  0
  8 14  1  0  0  0  0
  9 22  1  0  0  0  0
 10 15  2  0  0  0  0
 10 23  1  0  0  0  0
 11 24  1  0  0  0  0
 11 25  1  0  0  0  0
 11 26  1  0  0  0  0
 12 18  1  0  0  0  0
 12 27  1  0  0  0  0
 13 19  2  0  0  0  0
 13 28  1  0  0  0  0
 14 16  1  0  0  0  0
 15 17  1  0  0  0  0
 16 17  2  0  0  0  0
 16 29  1  0  0  0  0
 17 30  1  0  0  0  0
 18 20  2  0  0  0  0
 18 31  1  0  0  0  0
 19 20  1  0  0  0  0
 19 32  1  0  0  0  0
 20 33  1  0  0  0  0
M  END
> <Activity>
2.389

> <Mapped(file=504701.csv.activities,property=Cached(PUBCHEM_COMPOUND_CID))>
2.389

> <PUBCHEM_ATOM_DEF_STEREO_COUNT>
0

> <PUBCHEM_ATOM_UDEF_STEREO_COUNT>
0

> <PUBCHEM_BONDANNOTATIONS>
12  18  8
13  19  8
18  20  8
19  20  8
7  12  8
7  13  8

> <PUBCHEM_BOND_DEF_STEREO_COUNT>
1

> <PUBCHEM_BOND_UDEF_STEREO_COUNT>
0

> <PUBCHEM_CACTVS_COMPLEXITY>
482

> <PUBCHEM_CACTVS_HBOND_ACCEPTOR>
5

> <PUBCHEM_CACTVS_HBOND_DONOR>
1

> <PUBCHEM_CACTVS_ROTATABLE_BOND>
3

> <PUBCHEM_CACTVS_SUBSKEYS>
AAADccBzMAAAAAAAAAAAAAAAAAAAAAAAAAAwQAAAAAAAAAABAAAAHgAcAAAADAzBkAQywIJyQACJAqRWQwCCBAAhAgA4qIEIZMgIICLAkZGEIAhggABIyccQAAAAAAAAAAAAAAAAAAAAAAAAAAAAAAAAAA==

> <PUBCHEM_CACTVS_TAUTO_COUNT>
4

> <PUBCHEM_CACTVS_TPSA>
78.2

> <PUBCHEM_COMPONENT_COUNT>
1

> <PUBCHEM_COMPOUND_CANONICALIZED>
1

> <PUBCHEM_COMPOUND_CID>
5367074

> <PUBCHEM_COORDINATE_TYPE>
1
5
255

> <PUBCHEM_EXACT_MASS>
271.095691

> <PUBCHEM_HEAVY_ATOM_COUNT>
20

> <PUBCHEM_ISOTOPIC_ATOM_COUNT>
0

> <PUBCHEM_IUPAC_CAS_NAME>
(6E)-6-[(2-methyl-2-phenylhydrazinyl)methylidene]-4-nitro-1-cyclohexa-2,4-dienone

> <PUBCHEM_IUPAC_INCHI>
InChI=1S/C14H13N3O3/c1-16(12-5-3-2-4-6-12)15-10-11-9-13(17(19)20)7-8-14(11)18/h2-10,15H,1H3/b11-10+

> <PUBCHEM_IUPAC_INCHIKEY>
WMQLGWQJXDSTMA-ZHACJKMWSA-N

> <PUBCHEM_IUPAC_NAME>
(6E)-6-[(2-methyl-2-phenylhydrazinyl)methylidene]-4-nitrocyclohexa-2,4-dien-1-one

> <PUBCHEM_IUPAC_OPENEYE_NAME>
(6E)-6-[(2-methyl-2-phenyl-hydrazino)methylene]-4-nitro-cyclohexa-2,4-dien-1-one

> <PUBCHEM_IUPAC_SYSTEMATIC_NAME>
(6E)-6-[(2-methyl-2-phenyl-hydrazinyl)methylidene]-4-nitro-cyclohexa-2,4-dien-1-one

> <PUBCHEM_IUPAC_TRADITIONAL_NAME>
(6E)-6-[(N'-methyl-N'-phenyl-hydrazino)methylene]-4-nitro-cyclohexa-2,4-dien-1-one

> <PUBCHEM_MOLECULAR_FORMULA>
C14H13N3O3

> <PUBCHEM_MOLECULAR_WEIGHT>
271.27132

> <PUBCHEM_MONOISOTOPIC_WEIGHT>
271.095691

> <PUBCHEM_OPENEYE_CAN_SMILES>
CN(C1=CC=CC=C1)NC=C2C=C(C=CC2=O)[N+](=O)[O-]

> <PUBCHEM_OPENEYE_ISO_SMILES>
CN(C1=CC=CC=C1)N/C=C/2\C=C(C=CC2=O)[N+](=O)[O-]

> <PUBCHEM_TOTAL_CHARGE>
0

> <PUBCHEM_XLOGP3_AA>
3.4

$$$$
Written by BCL::WriteToMDL,2866993
MBcorina  10171218483D 1   1.00000     0.00000 
CORINA 3.49 0026  01.06.2011
 27 29  0  0  0  0  0  0  0  0999 V2000
   -0.0217    1.7502    0.0117 S   0  0  0  1  0  2  0  0  0  0  0  0
    3.1012   -0.6675    1.6137 O   0  0  0  1  0  1  0  0  0  0  0  0
   -0.1085   -4.1545   -0.0582 O   0  0  0  1  0  2  0  0  0  0  0  0
    1.1163   -0.7437    0.4099 C   0  0  0  1  0  3  0  0  0  0  0  0
    0.0021   -0.0041    0.0020 C   0  0  0  1  0  3  0  0  0  0  0  0
    2.6784    1.2705    0.4059 C   0  0  0  1  0  3  0  0  0  0  0  0
   -1.1423   -0.6855   -0.4316 C   0  0  0  1  0  3  0  0  0  0  0  0
    2.3461   -0.0835    0.8572 C   0  0  0  1  0  3  0  0  0  0  0  0
    1.6829    2.1645   -0.0024 C   0  0  0  1  0  3  0  0  0  0  0  0
    1.0709   -2.1468    0.3901 C   0  0  0  1  0  3  0  0  0  0  0  0
   -1.1741   -2.0584   -0.4514 C   0  0  0  1  0  3  0  0  0  0  0  0
   -0.0669   -2.7955   -0.0383 C   0  0  0  1  0  3  0  0  0  0  0  0
    4.0247    1.6667    0.3856 C   0  0  0  1  0  3  0  0  0  0  0  0
   -2.3506    0.0953   -0.8803 C   0  0  0  1  0  4  0  0  0  0  0  0
    2.0582    3.4409   -0.4396 C   0  0  0  1  0  3  0  0  0  0  0  0
    4.3669    2.9259   -0.0444 C   0  0  0  1  0  3  0  0  0  0  0  0
    3.3814    3.8110   -0.4597 C   0  0  0  1  0  3  0  0  0  0  0  0
    1.9292   -2.7186    0.7107 H   0  0  0  1  0  1  0  0  0  0  0  0
   -2.0634   -2.5697   -0.7890 H   0  0  0  1  0  1  0  0  0  0  0  0
    4.7933    0.9801    0.7084 H   0  0  0  1  0  1  0  0  0  0  0  0
   -2.2809    0.2895   -1.9506 H   0  0  0  1  0  1  0  0  0  0  0  0
   -3.2527   -0.4805   -0.6735 H   0  0  0  1  0  1  0  0  0  0  0  0
   -2.3922    1.0418   -0.3413 H   0  0  0  1  0  1  0  0  0  0  0  0
    1.3015    4.1399   -0.7639 H   0  0  0  1  0  1  0  0  0  0  0  0
    5.4037    3.2277   -0.0588 H   0  0  0  1  0  1  0  0  0  0  0  0
    3.6568    4.7978   -0.8015 H   0  0  0  1  0  1  0  0  0  0  0  0
   -0.4305   -4.5502    0.7633 H   0  0  0  1  0  1  0  0  0  0  0  0
  1  5  1  0  0  0  0
  1  9  1  0  0  0  0
  2  8  2  0  0  0  0
  3 12  1  0  0  0  0
  3 27  1  0  0  0  0
  4  5  2  0  0  0  0
  4  8  1  0  0  0  0
  4 10  1  0  0  0  0
  5  7  1  0  0  0  0
  6  8  1  0  0  0  0
  6  9  1  0  0  0  0
  6 13  2  0  0  0  0
  7 11  2  0  0  0  0
  7 14  1  0  0  0  0
  9 15  2  0  0  0  0
 10 12  2  0  0  0  0
 10 18  1  0  0  0  0
 11 12  1  0  0  0  0
 11 19  1  0  0  0  0
 13 16  1  0  0  0  0
 13 20  1  0  0  0  0
 14 21  1  0  0  0  0
 14 22  1  0  0  0  0
 14 23  1  0  0  0  0
 15 17  1  0  0  0  0
 15 24  1  0  0  0  0
 16 17  2  0  0  0  0
 16 25  1  0  0  0  0
 17 26  1  0  0  0  0
M  END
> <Activity>
3.643

> <Mapped(file=504701.csv.activities,property=Cached(PUBCHEM_COMPOUND_CID))>
3.643

> <PUBCHEM_ATOM_DEF_STEREO_COUNT>
0

> <PUBCHEM_ATOM_UDEF_STEREO_COUNT>
0

> <PUBCHEM_BONDANNOTATIONS>
1  5  8
1  9  8
10  12  8
11  12  8
13  16  8
15  17  8
16  17  8
4  10  8
4  5  8
4  8  8
5  7  8
6  13  8
6  8  8
6  9  8
7  11  8
9  15  8

> <PUBCHEM_BOND_DEF_STEREO_COUNT>
0

> <PUBCHEM_BOND_UDEF_STEREO_COUNT>
0

> <PUBCHEM_CACTVS_COMPLEXITY>
317

> <PUBCHEM_CACTVS_HBOND_ACCEPTOR>
3

> <PUBCHEM_CACTVS_HBOND_DONOR>
1

> <PUBCHEM_CACTVS_ROTATABLE_BOND>
0

> <PUBCHEM_CACTVS_SUBSKEYS>
AAADccBwMABAAAAAAAAAAAAAAAAAAAAAAAA0YIAAAAAAAACRQAAAGgQACAAADASA2AAyB4AAAgiIAqBSAAACAAAkKBAIiBkGCMgIJjKiFRKAcQAkwBEomYeKyPCOAIADAAAEAAABAAYAAAgAAAAAAAAAAA==

> <PUBCHEM_CACTVS_TAUTO_COUNT>
6

> <PUBCHEM_CACTVS_TPSA>
62.6

> <PUBCHEM_COMPONENT_COUNT>
1

> <PUBCHEM_COMPOUND_CANONICALIZED>
1

> <PUBCHEM_COMPOUND_CID>
2866993

> <PUBCHEM_COORDINATE_TYPE>
1
5
255

> <PUBCHEM_EXACT_MASS>
242.040151

> <PUBCHEM_HEAVY_ATOM_COUNT>
17

> <PUBCHEM_ISOTOPIC_ATOM_COUNT>
0

> <PUBCHEM_IUPAC_CAS_NAME>
2-hydroxy-4-methyl-9-thioxanthenone

> <PUBCHEM_IUPAC_INCHI>
InChI=1S/C14H10O2S/c1-8-6-9(15)7-11-13(16)10-4-2-3-5-12(10)17-14(8)11/h2-7,15H,1H3

> <PUBCHEM_IUPAC_INCHIKEY>
LHXGLTZNCXCSKG-UHFFFAOYSA-N

> <PUBCHEM_IUPAC_NAME>
2-hydroxy-4-methylthioxanthen-9-one

> <PUBCHEM_IUPAC_OPENEYE_NAME>
2-hydroxy-4-methyl-thioxanthen-9-one

> <PUBCHEM_IUPAC_SYSTEMATIC_NAME>
4-methyl-2-oxidanyl-thioxanthen-9-one

> <PUBCHEM_IUPAC_TRADITIONAL_NAME>
2-hydroxy-4-methyl-thioxanthen-9-one

> <PUBCHEM_MOLECULAR_FORMULA>
C14H10O2S

> <PUBCHEM_MOLECULAR_WEIGHT>
242.293

> <PUBCHEM_MONOISOTOPIC_WEIGHT>
242.040151

> <PUBCHEM_OPENEYE_CAN_SMILES>
CC1=C2C(=CC(=C1)O)C(=O)C3=CC=CC=C3S2

> <PUBCHEM_OPENEYE_ISO_SMILES>
CC1=C2C(=CC(=C1)O)C(=O)C3=CC=CC=C3S2

> <PUBCHEM_TOTAL_CHARGE>
0

> <PUBCHEM_XLOGP3_AA>
3.5

$$$$
Written by BCL::WriteToMDL,2772722
MBcorina  10171218483D 1   1.00000     0.00000 
CORINA 3.49 0026  01.06.2011
 42 44  0  0  0  0  0  0  0  0999 V2000
   -0.0218    1.7577    0.0117 S   0  0  0  1  0  2  0  0  0  0  0  0
    3.3912    3.8760   -0.0095 O   0  0  0  1  0  2  0  0  0  0  0  0
   -5.0229    0.4510    2.6750 O   0  0  0  1  0  2  0  0  0  0  0  0
   -4.9906    0.4403    0.4654 O   0  0  0  1  0  1  0  0  0  0  0  0
   -1.1054   -0.8044    0.0083 N   0  0  0  1  0  3  0  0  0  0  0  0
    1.0847   -0.7425   -0.0131 N   0  0  0  1  0  2  0  0  0  0  0  0
   -0.6631   -2.1172   -0.0038 C   0  0  0  1  0  3  0  0  0  0  0  0
   -2.5004   -0.3575    0.0302 C   0  0  0  1  0  4  0  0  0  0  0  0
    0.0021   -0.0041    0.0020 C   0  0  0  1  0  3  0  0  0  0  0  0
    0.7404   -2.0569   -0.0230 C   0  0  0  1  0  3  0  0  0  0  0  0
   -2.9654   -0.2083    1.4801 C   0  0  0  1  0  4  0  0  0  0  0  0
   -1.3030   -3.3468   -0.0005 C   0  0  0  1  0  3  0  0  0  0  0  0
    1.4794   -3.2421   -0.0394 C   0  0  0  1  0  3  0  0  0  0  0  0
    1.7562    2.0963   -0.0035 C   0  0  0  1  0  4  0  0  0  0  0  0
   -0.5585   -4.5088   -0.0161 C   0  0  0  1  0  3  0  0  0  0  0  0
    0.8268   -4.4550   -0.0457 C   0  0  0  1  0  3  0  0  0  0  0  0
    1.9874    3.6087    0.0025 C   0  0  0  1  0  4  0  0  0  0  0  0
   -4.4004    0.2514    1.5026 C   0  0  0  1  0  3  0  0  0  0  0  0
    3.7708    5.1809   -0.0061 C   0  0  0  1  0  3  0  0  0  0  0  0
    5.1179    5.5126   -0.0172 C   0  0  0  1  0  3  0  0  0  0  0  0
    2.8120    6.1834    0.0027 C   0  0  0  1  0  3  0  0  0  0  0  0
    5.5012    6.8398   -0.0137 C   0  0  0  1  0  3  0  0  0  0  0  0
    3.2005    7.5091    0.0062 C   0  0  0  1  0  3  0  0  0  0  0  0
    4.5437    7.8371    0.0013 C   0  0  0  1  0  3  0  0  0  0  0  0
   -2.5822    0.6032   -0.4783 H   0  0  0  1  0  1  0  0  0  0  0  0
   -3.1252   -1.0919   -0.4780 H   0  0  0  1  0  1  0  0  0  0  0  0
   -2.8836   -1.1689    1.9886 H   0  0  0  1  0  1  0  0  0  0  0  0
   -2.3406    0.5262    1.9883 H   0  0  0  1  0  1  0  0  0  0  0  0
   -2.3818   -3.3954    0.0147 H   0  0  0  1  0  1  0  0  0  0  0  0
    2.5588   -3.2076   -0.0474 H   0  0  0  1  0  1  0  0  0  0  0  0
    2.2177    1.6547    0.8798 H   0  0  0  1  0  1  0  0  0  0  0  0
    2.2007    1.6643   -0.9001 H   0  0  0  1  0  1  0  0  0  0  0  0
   -1.0582   -5.4663   -0.0131 H   0  0  0  1  0  1  0  0  0  0  0  0
    1.3985   -5.3712   -0.0584 H   0  0  0  1  0  1  0  0  0  0  0  0
    1.5430    4.0407    0.8991 H   0  0  0  1  0  1  0  0  0  0  0  0
    1.5260    4.0503   -0.8808 H   0  0  0  1  0  1  0  0  0  0  0  0
    5.8662    4.7339   -0.0282 H   0  0  0  1  0  1  0  0  0  0  0  0
    1.7627    5.9277    0.0065 H   0  0  0  1  0  1  0  0  0  0  0  0
   -5.9432    0.7458    2.6388 H   0  0  0  1  0  1  0  0  0  0  0  0
    6.5497    7.0986   -0.0223 H   0  0  0  1  0  1  0  0  0  0  0  0
    2.4544    8.2900    0.0130 H   0  0  0  1  0  1  0  0  0  0  0  0
    4.8454    8.8741    0.0048 H   0  0  0  1  0  1  0  0  0  0  0  0
  1  9  1  0  0  0  0
  1 14  1  0  0  0  0
  2 17  1  0  0  0  0
  2 19  1  0  0  0  0
  3 18  1  0  0  0  0
  3 39  1  0  0  0  0
  4 18  2  0  0  0  0
  5  7  1  0  0  0  0
  5  8  1  0  0  0  0
  5  9  1  0  0  0  0
  6  9  2  0  0  0  0
  6 10  1  0  0  0  0
  7 10  1  0  0  0  0
  7 12  2  0  0  0  0
  8 11  1  0  0  0  0
  8 25  1  0  0  0  0
  8 26  1  0  0  0  0
 10 13  2  0  0  0  0
 11 18  1  0  0  0  0
 11 27  1  0  0  0  0
 11 28  1  0  0  0  0
 12 15  1  0  0  0  0
 12 29  1  0  0  0  0
 13 16  1  0  0  0  0
 13 30  1  0  0  0  0
 14 17  1  0  0  0  0
 14 31  1  0  0  0  0
 14 32  1  0  0  0  0
 15 16  2  0  0  0  0
 15 33  1  0  0  0  0
 16 34  1  0  0  0  0
 17 35  1  0  0  0  0
 17 36  1  0  0  0  0
 19 20  2  0  0  0  0
 19 21  1  0  0  0  0
 20 22  1  0  0  0  0
 20 37  1  0  0  0  0
 21 23  2  0  0  0  0
 21 38  1  0  0  0  0
 22 24  2  0  0  0  0
 22 40  1  0  0  0  0
 23 24  1  0  0  0  0
 23 41  1  0  0  0  0
 24 42  1  0  0  0  0
M  END
> <Activity>
0.68736

> <Mapped(file=504701.csv.activities,property=Cached(PUBCHEM_COMPOUND_CID))>
0.68736

> <PUBCHEM_ATOM_DEF_STEREO_COUNT>
0

> <PUBCHEM_ATOM_UDEF_STEREO_COUNT>
0

> <PUBCHEM_BONDANNOTATIONS>
10  13  8
12  15  8
13  16  8
15  16  8
19  20  8
19  21  8
20  22  8
21  23  8
22  24  8
23  24  8
5  7  8
5  9  8
6  10  8
6  9  8
7  10  8
7  12  8

> <PUBCHEM_BOND_DEF_STEREO_COUNT>
0

> <PUBCHEM_BOND_UDEF_STEREO_COUNT>
0

> <PUBCHEM_CACTVS_COMPLEXITY>
404

> <PUBCHEM_CACTVS_HBOND_ACCEPTOR>
4

> <PUBCHEM_CACTVS_HBOND_DONOR>
1

> <PUBCHEM_CACTVS_ROTATABLE_BOND>
8

> <PUBCHEM_CACTVS_SUBSKEYS>
AAADceB7MABAAAAAAAAAAAAAAAAAAWAAAAAwYAAAAAAAAFgB9AAAHgQACAAACAzl1gax3rcMFgioASTybACC2C1hMrAJ2CE+fJiMbqrEuZuWeCjuwBPI6CeQQAAAAAAAAAAAACAAAAAAAAAAQAAAAAAAAA==

> <PUBCHEM_CACTVS_TAUTO_COUNT>
1

> <PUBCHEM_CACTVS_TPSA>
89.6

> <PUBCHEM_COMPONENT_COUNT>
1

> <PUBCHEM_COMPOUND_CANONICALIZED>
1

> <PUBCHEM_COMPOUND_CID>
2772722

> <PUBCHEM_COORDINATE_TYPE>
1
5
255

> <PUBCHEM_EXACT_MASS>
342.103813

> <PUBCHEM_HEAVY_ATOM_COUNT>
24

> <PUBCHEM_ISOTOPIC_ATOM_COUNT>
0

> <PUBCHEM_IUPAC_CAS_NAME>
3-[2-(2-phenoxyethylthio)-1-benzimidazolyl]propanoic acid

> <PUBCHEM_IUPAC_INCHI>
InChI=1S/C18H18N2O3S/c21-17(22)10-11-20-16-9-5-4-8-15(16)19-18(20)24-13-12-23-14-6-2-1-3-7-14/h1-9H,10-13H2,(H,21,22)

> <PUBCHEM_IUPAC_INCHIKEY>
PHAJRNLHWLJQLC-UHFFFAOYSA-N

> <PUBCHEM_IUPAC_NAME>
3-[2-(2-phenoxyethylsulfanyl)benzimidazol-1-yl]propanoic acid

> <PUBCHEM_IUPAC_OPENEYE_NAME>
3-[2-(2-phenoxyethylsulfanyl)benzimidazol-1-yl]propanoic acid

> <PUBCHEM_IUPAC_SYSTEMATIC_NAME>
3-[2-(2-phenoxyethylsulfanyl)benzimidazol-1-yl]propanoic acid

> <PUBCHEM_IUPAC_TRADITIONAL_NAME>
3-[2-(2-phenoxyethylthio)benzimidazol-1-yl]propionic acid

> <PUBCHEM_MOLECULAR_FORMULA>
C18H18N2O3S

> <PUBCHEM_MOLECULAR_WEIGHT>
342.41212

> <PUBCHEM_MONOISOTOPIC_WEIGHT>
342.103813

> <PUBCHEM_OPENEYE_CAN_SMILES>
C1=CC=C(C=C1)OCCSC2=NC3=CC=CC=C3N2CCC(=O)O

> <PUBCHEM_OPENEYE_ISO_SMILES>
C1=CC=C(C=C1)OCCSC2=NC3=CC=CC=C3N2CCC(=O)O

> <PUBCHEM_TOTAL_CHARGE>
0

> <PUBCHEM_XLOGP3_AA>
3.4

$$$$
Written by BCL::WriteToMDL,12005034
MBcorina  10171218483D 1   1.00000     0.00000 
CORINA 3.49 0026  01.06.2011
 57 60  0  0  0  0  0  0  0  0999 V2000
   -8.0040    4.8318    0.1417 O   0  0  0  1  0  1  0  0  0  0  0  0
   -4.8912    1.2018    0.0767 O   0  0  0  1  0  1  0  0  0  0  0  0
   -0.0169    1.3971    0.0097 N   0  0  0  1  0  3  0  0  0  0  0  0
   -9.5231    3.2150    0.1533 N   0  0  0  1  0  3  0  0  0  0  0  0
   -0.7905    3.6153    0.0333 N   0  0  0  1  0  2  0  0  0  0  0  0
    2.0442    0.7154   -0.0136 N   0  0  0  1  0  2  0  0  0  0  0  0
    0.0021   -0.0041    0.0020 N   0  0  0  1  0  2  0  0  0  0  0  0
   -2.3226    1.8909    0.0449 N   0  0  0  1  0  3  0  0  0  0  0  0
   -3.3722    2.8187    0.0650 N   0  0  0  1  0  3  0  0  0  0  0  0
    1.2935    1.7949   -0.0007 C   0  0  0  1  0  3  0  0  0  0  0  0
    1.5688    3.2365    0.0049 C   0  0  0  1  0  3  0  0  0  0  0  0
  -11.9580    3.4420    0.1887 C   0  0  0  1  0  4  0  0  0  0  0  0
  -10.6206    4.1851    0.1744 C   0  0  0  1  0  4  0  0  0  0  0  0
   -1.0192    2.3278    0.0292 C   0  0  0  1  0  3  0  0  0  0  0  0
    0.4664    4.1214    0.0206 C   0  0  0  1  0  3  0  0  0  0  0  0
  -13.1042    4.4552    0.2107 C   0  0  0  1  0  4  0  0  0  0  0  0
   -7.1163    2.6453    0.1163 C   0  0  0  1  0  4  0  0  0  0  0  0
    1.2669   -0.3729   -0.0120 C   0  0  0  1  0  3  0  0  0  0  0  0
   -5.7790    3.3884    0.1020 C   0  0  0  1  0  4  0  0  0  0  0  0
    2.8670    3.7404   -0.0052 C   0  0  0  1  0  3  0  0  0  0  0  0
   -8.2453    3.6433    0.1380 C   0  0  0  1  0  3  0  0  0  0  0  0
    0.6969    5.4994    0.0254 C   0  0  0  1  0  3  0  0  0  0  0  0
    1.7526   -1.7752   -0.0247 C   0  0  0  1  0  3  0  0  0  0  0  0
   -4.6500    2.3904    0.0803 C   0  0  0  1  0  3  0  0  0  0  0  0
  -14.4416    3.7121    0.2250 C   0  0  0  1  0  4  0  0  0  0  0  0
    3.0681    5.1037    0.0001 C   0  0  0  1  0  3  0  0  0  0  0  0
    1.9882    5.9762    0.0125 C   0  0  0  1  0  3  0  0  0  0  0  0
    0.8427   -2.8303   -0.0216 C   0  0  0  1  0  3  0  0  0  0  0  0
    3.1201   -2.0413   -0.0454 C   0  0  0  1  0  3  0  0  0  0  0  0
    1.2999   -4.1325   -0.0333 C   0  0  0  1  0  3  0  0  0  0  0  0
    3.5663   -3.3474   -0.0570 C   0  0  0  1  0  3  0  0  0  0  0  0
    2.6586   -4.3911   -0.0481 C   0  0  0  1  0  3  0  0  0  0  0  0
  -12.0385    2.8217   -0.7039 H   0  0  0  1  0  1  0  0  0  0  0  0
  -12.0136    2.8111    1.0758 H   0  0  0  1  0  1  0  0  0  0  0  0
  -10.5401    4.8055    1.0671 H   0  0  0  1  0  1  0  0  0  0  0  0
  -10.5650    4.8160   -0.7127 H   0  0  0  1  0  1  0  0  0  0  0  0
  -13.0237    5.0756    1.1034 H   0  0  0  1  0  1  0  0  0  0  0  0
  -13.0486    5.0861   -0.6764 H   0  0  0  1  0  1  0  0  0  0  0  0
   -7.1968    2.0249   -0.7763 H   0  0  0  1  0  1  0  0  0  0  0  0
   -7.1720    2.0144    1.0034 H   0  0  0  1  0  1  0  0  0  0  0  0
   -5.7233    4.0193   -0.7851 H   0  0  0  1  0  1  0  0  0  0  0  0
   -5.6984    4.0087    0.9947 H   0  0  0  1  0  1  0  0  0  0  0  0
   -9.7161    2.2644    0.1504 H   0  0  0  1  0  1  0  0  0  0  0  0
    3.7111    3.0668   -0.0169 H   0  0  0  1  0  1  0  0  0  0  0  0
   -2.5155    0.9403    0.0419 H   0  0  0  1  0  1  0  0  0  0  0  0
   -0.1350    6.1880    0.0389 H   0  0  0  1  0  1  0  0  0  0  0  0
  -14.5221    3.0918   -0.6676 H   0  0  0  1  0  1  0  0  0  0  0  0
  -14.4972    3.0813    1.1121 H   0  0  0  1  0  1  0  0  0  0  0  0
  -15.2581    4.4340    0.2407 H   0  0  0  1  0  1  0  0  0  0  0  0
   -3.1792    3.7693    0.0680 H   0  0  0  1  0  1  0  0  0  0  0  0
    4.0740    5.4967   -0.0073 H   0  0  0  1  0  1  0  0  0  0  0  0
    2.1634    7.0419    0.0159 H   0  0  0  1  0  1  0  0  0  0  0  0
   -0.2184   -2.6296   -0.0097 H   0  0  0  1  0  1  0  0  0  0  0  0
    3.8296   -1.2271   -0.0527 H   0  0  0  1  0  1  0  0  0  0  0  0
    0.5955   -4.9512   -0.0306 H   0  0  0  1  0  1  0  0  0  0  0  0
    4.6261   -3.5548   -0.0730 H   0  0  0  1  0  1  0  0  0  0  0  0
    3.0121   -5.4116   -0.0572 H   0  0  0  1  0  1  0  0  0  0  0  0
  1 21  2  0  0  0  0
  2 24  2  0  0  0  0
  3  7  1  0  0  0  0
  3 10  1  0  0  0  0
  3 14  1  0  0  0  0
  4 13  1  0  0  0  0
  4 21  1  0  0  0  0
  4 43  1  0  0  0  0
  5 14  2  0  0  0  0
  5 15  1  0  0  0  0
  6 10  2  0  0  0  0
  6 18  1  0  0  0  0
  7 18  2  0  0  0  0
  8  9  1  0  0  0  0
  8 14  1  0  0  0  0
  8 45  1  0  0  0  0
  9 24  1  0  0  0  0
  9 50  1  0  0  0  0
 10 11  1  0  0  0  0
 11 15  1  0  0  0  0
 11 20  2  0  0  0  0
 12 13  1  0  0  0  0
 12 16  1  0  0  0  0
 12 33  1  0  0  0  0
 12 34  1  0  0  0  0
 13 35  1  0  0  0  0
 13 36  1  0  0  0  0
 15 22  2  0  0  0  0
 16 25  1  0  0  0  0
 16 37  1  0  0  0  0
 16 38  1  0  0  0  0
 17 19  1  0  0  0  0
 17 21  1  0  0  0  0
 17 39  1  0  0  0  0
 17 40  1  0  0  0  0
 18 23  1  0  0  0  0
 19 24  1  0  0  0  0
 19 41  1  0  0  0  0
 19 42  1  0  0  0  0
 20 26  1  0  0  0  0
 20 44  1  0  0  0  0
 22 27  1  0  0  0  0
 22 46  1  0  0  0  0
 23 28  2  0  0  0  0
 23 29  1  0  0  0  0
 25 47  1  0  0  0  0
 25 48  1  0  0  0  0
 25 49  1  0  0  0  0
 26 27  2  0  0  0  0
 26 51  1  0  0  0  0
 27 52  1  0  0  0  0
 28 30  1  0  0  0  0
 28 53  1  0  0  0  0
 29 31  2  0  0  0  0
 29 54  1  0  0  0  0
 30 32  2  0  0  0  0
 30 55  1  0  0  0  0
 31 32  1  0  0  0  0
 31 56  1  0  0  0  0
 32 57  1  0  0  0  0
M  END
> <Activity>
2.693

> <Mapped(file=504701.csv.activities,property=Cached(PUBCHEM_COMPOUND_CID))>
2.693

> <PUBCHEM_ATOM_DEF_STEREO_COUNT>
0

> <PUBCHEM_ATOM_UDEF_STEREO_COUNT>
0

> <PUBCHEM_BONDANNOTATIONS>
10  11  8
11  15  8
11  20  8
15  22  8
20  26  8
22  27  8
23  28  8
23  29  8
26  27  8
28  30  8
29  31  8
3  10  8
3  14  8
3  7  8
30  32  8
31  32  8
5  14  8
5  15  8
6  10  8
6  18  8
7  18  8

> <PUBCHEM_BOND_DEF_STEREO_COUNT>
0

> <PUBCHEM_BOND_UDEF_STEREO_COUNT>
0

> <PUBCHEM_CACTVS_COMPLEXITY>
628

> <PUBCHEM_CACTVS_HBOND_ACCEPTOR>
2

> <PUBCHEM_CACTVS_HBOND_DONOR>
3

> <PUBCHEM_CACTVS_ROTATABLE_BOND>
9

> <PUBCHEM_CACTVS_SUBSKEYS>
AAADceB7sAAAAAAAAAAAAAAAAAAAAWAAAAA8YIAAAAAAAFix9AAAHgAYAAAADAjBnwQz8P7qEACqAydydACShCshAqIfuKE4ZJiIKLLA2dGEpAh4ngLIyCcVgAAOAAAAAAACAAAAAAAAAAQAAAAAAAAAAA==

> <PUBCHEM_CACTVS_TAUTO_COUNT>
36

> <PUBCHEM_CACTVS_TPSA>
113

> <PUBCHEM_COMPONENT_COUNT>
1

> <PUBCHEM_COMPOUND_CANONICALIZED>
1

> <PUBCHEM_COMPOUND_CID>
12005034

> <PUBCHEM_COORDINATE_TYPE>
1
5
255

> <PUBCHEM_EXACT_MASS>
431.206973

> <PUBCHEM_HEAVY_ATOM_COUNT>
32

> <PUBCHEM_ISOTOPIC_ATOM_COUNT>
0

> <PUBCHEM_IUPAC_CAS_NAME>
N-butyl-4-oxo-4-[(2-phenyl-[1,2,4]triazolo[1,5-c]quinazolin-5-yl)hydrazo]butanamide

> <PUBCHEM_IUPAC_INCHI>
InChI=1S/C23H25N7O2/c1-2-3-15-24-19(31)13-14-20(32)27-28-23-25-18-12-8-7-11-17(18)22-26-21(29-30(22)23)16-9-5-4-6-10-16/h4-12H,2-3,13-15H2,1H3,(H,24,31)(H,25,28)(H,27,32)

> <PUBCHEM_IUPAC_INCHIKEY>
FCHLRBHPHXGVJS-UHFFFAOYSA-N

> <PUBCHEM_IUPAC_NAME>
N-butyl-4-oxo-4-[2-(2-phenyl-[1,2,4]triazolo[1,5-c]quinazolin-5-yl)hydrazinyl]butanamide

> <PUBCHEM_IUPAC_OPENEYE_NAME>
N-butyl-4-oxo-4-[2-(2-phenyl-[1,2,4]triazolo[1,5-c]quinazolin-5-yl)hydrazino]butanamide

> <PUBCHEM_IUPAC_SYSTEMATIC_NAME>
N-butyl-4-oxidanylidene-4-[2-(2-phenyl-[1,2,4]triazolo[1,5-c]quinazolin-5-yl)hydrazinyl]butanamide

> <PUBCHEM_IUPAC_TRADITIONAL_NAME>
N-butyl-4-keto-4-[N'-(2-phenyl-[1,2,4]triazolo[1,5-c]quinazolin-5-yl)hydrazino]butyramide

> <PUBCHEM_MOLECULAR_FORMULA>
C23H25N7O2

> <PUBCHEM_MOLECULAR_WEIGHT>
431.4903

> <PUBCHEM_MONOISOTOPIC_WEIGHT>
431.206973

> <PUBCHEM_OPENEYE_CAN_SMILES>
CCCCNC(=O)CCC(=O)NNC1=NC2=CC=CC=C2C3=NC(=NN31)C4=CC=CC=C4

> <PUBCHEM_OPENEYE_ISO_SMILES>
CCCCNC(=O)CCC(=O)NNC1=NC2=CC=CC=C2C3=NC(=NN31)C4=CC=CC=C4

> <PUBCHEM_TOTAL_CHARGE>
0

> <PUBCHEM_XLOGP3_AA>
3.4

$$$$
Written by BCL::WriteToMDL,44142360
MBcorina  10171218483D 1   1.00000     0.00000 
CORINA 3.49 0026  01.06.2011
 42 45  0  0  0  0  0  0  0  0999 V2000
    3.3647   -0.5206    1.0758 O   0  0  0  1  0  1  0  0  0  0  0  0
   -0.0166    1.3743    0.0096 N   0  0  0  1  0  3  0  0  0  0  0  0
   -1.0818   -7.4526   -0.8137 N   0  0  0  1  0  2  0  0  0  0  0  0
    0.0028   -0.0017   -0.0716 C   0  0  0  1  0  3  0  0  0  0  0  0
    1.1451    2.1154    0.0762 C   0  0  0  1  0  3  0  0  0  0  0  0
    1.1808   -0.7154    0.2181 C   0  0  0  1  0  3  0  0  0  0  0  0
    2.3714    1.4942    0.3721 C   0  0  0  1  0  3  0  0  0  0  0  0
    2.3931    0.0362    0.5980 C   0  0  0  1  0  3  0  0  0  0  0  0
   -1.3063    2.0691    0.0194 C   0  0  0  1  0  4  0  0  0  0  0  0
   -1.1473   -0.6989   -0.4413 C   0  0  0  1  0  3  0  0  0  0  0  0
    1.1171    3.4891   -0.1487 C   0  0  0  1  0  3  0  0  0  0  0  0
    1.1953   -2.1058    0.1422 C   0  0  0  1  0  3  0  0  0  0  0  0
    3.5416    2.2502    0.4451 C   0  0  0  1  0  3  0  0  0  0  0  0
    0.0342   -2.7817   -0.2271 C   0  0  0  1  0  3  0  0  0  0  0  0
   -1.1328   -2.0602   -0.5181 C   0  0  0  1  0  3  0  0  0  0  0  0
    2.2812    4.2228   -0.0757 C   0  0  0  1  0  3  0  0  0  0  0  0
    3.4894    3.6083    0.2209 C   0  0  0  1  0  3  0  0  0  0  0  0
   -1.6964    2.4241   -1.3923 C   0  0  0  1  0  3  0  0  0  0  0  0
    0.0326   -4.2113   -0.3099 C   0  0  0  1  0  2  0  0  0  0  0  0
   -2.8535    2.0369   -1.8691 C   0  0  0  1  0  3  0  0  0  0  0  0
    0.0312   -5.3833   -0.3778 C   0  0  0  1  0  2  0  0  0  0  0  0
    0.0296   -6.8129   -0.4606 C   0  0  0  1  0  3  0  0  0  0  0  0
    1.1954   -7.5260   -0.1695 C   0  0  0  1  0  3  0  0  0  0  0  0
    1.1768   -8.9064   -0.2538 C   0  0  0  1  0  3  0  0  0  0  0  0
   -1.1233   -8.7660   -0.9007 C   0  0  0  1  0  3  0  0  0  0  0  0
   -0.0051   -9.5325   -0.6262 C   0  0  0  1  0  3  0  0  0  0  0  0
   -2.0659    1.4191    0.4537 H   0  0  0  1  0  1  0  0  0  0  0  0
   -1.2241    2.9793    0.6134 H   0  0  0  1  0  1  0  0  0  0  0  0
   -2.0542   -0.1577   -0.6674 H   0  0  0  1  0  1  0  0  0  0  0  0
    0.1833    3.9795   -0.3806 H   0  0  0  1  0  1  0  0  0  0  0  0
    2.0978   -2.6548    0.3670 H   0  0  0  1  0  1  0  0  0  0  0  0
    4.4827    1.7736    0.6765 H   0  0  0  1  0  1  0  0  0  0  0  0
   -2.0296   -2.5886   -0.8063 H   0  0  0  1  0  1  0  0  0  0  0  0
    2.2529    5.2880   -0.2515 H   0  0  0  1  0  1  0  0  0  0  0  0
    4.3929    4.1975    0.2763 H   0  0  0  1  0  1  0  0  0  0  0  0
   -1.0221    2.9976   -2.0109 H   0  0  0  1  0  1  0  0  0  0  0  0
   -3.5279    1.4634   -1.2505 H   0  0  0  1  0  1  0  0  0  0  0  0
   -3.1331    2.2913   -2.8808 H   0  0  0  1  0  1  0  0  0  0  0  0
    2.0980   -7.0068    0.1169 H   0  0  0  1  0  1  0  0  0  0  0  0
    2.0624   -9.4846   -0.0351 H   0  0  0  1  0  1  0  0  0  0  0  0
   -0.0509  -10.6089   -0.7012 H   0  0  0  1  0  1  0  0  0  0  0  0
   -2.0435   -9.2516   -1.1902 H   0  0  0  1  0  1  0  0  0  0  0  0
  1  8  2  0  0  0  0
  2  4  1  0  0  0  0
  2  5  1  0  0  0  0
  2  9  1  0  0  0  0
  3 22  1  0  0  0  0
  3 25  2  0  0  0  0
  4  6  2  0  0  0  0
  4 10  1  0  0  0  0
  5  7  1  0  0  0  0
  5 11  2  0  0  0  0
  6  8  1  0  0  0  0
  6 12  1  0  0  0  0
  7  8  1  0  0  0  0
  7 13  2  0  0  0  0
  9 18  1  0  0  0  0
  9 27  1  0  0  0  0
  9 28  1  0  0  0  0
 10 15  2  0  0  0  0
 10 29  1  0  0  0  0
 11 16  1  0  0  0  0
 11 30  1  0  0  0  0
 12 14  2  0  0  0  0
 12 31  1  0  0  0  0
 13 17  1  0  0  0  0
 13 32  1  0  0  0  0
 14 15  1  0  0  0  0
 14 19  1  0  0  0  0
 15 33  1  0  0  0  0
 16 17  2  0  0  0  0
 16 34  1  0  0  0  0
 17 35  1  0  0  0  0
 18 20  2  0  0  0  0
 18 36  1  0  0  0  0
 19 21  3  0  0  0  0
 20 37  1  0  0  0  0
 20 38  1  0  0  0  0
 21 22  1  0  0  0  0
 22 23  2  0  0  0  0
 23 24  1  0  0  0  0
 23 39  1  0  0  0  0
 24 26  2  0  0  0  0
 24 40  1  0  0  0  0
 25 26  1  0  0  0  0
 25 42  1  0  0  0  0
 26 41  1  0  0  0  0
M  END
> <Activity>
0.00331

> <Mapped(file=504701.csv.activities,property=Cached(PUBCHEM_COMPOUND_CID))>
0.00331

> <PUBCHEM_ATOM_DEF_STEREO_COUNT>
0

> <PUBCHEM_ATOM_UDEF_STEREO_COUNT>
0

> <PUBCHEM_BONDANNOTATIONS>
10  15  8
11  16  8
12  14  8
13  17  8
14  15  8
16  17  8
2  4  8
2  5  8
22  23  8
23  24  8
24  26  8
25  26  8
3  22  8
3  25  8
4  10  8
4  6  8
5  11  8
5  7  8
6  12  8
6  8  8
7  13  8
7  8  8

> <PUBCHEM_BOND_DEF_STEREO_COUNT>
0

> <PUBCHEM_BOND_UDEF_STEREO_COUNT>
0

> <PUBCHEM_CACTVS_COMPLEXITY>
600

> <PUBCHEM_CACTVS_HBOND_ACCEPTOR>
3

> <PUBCHEM_CACTVS_HBOND_DONOR>
0

> <PUBCHEM_CACTVS_ROTATABLE_BOND>
4

> <PUBCHEM_CACTVS_SUBSKEYS>
AAADceB7IAAAAAAAAAAAAAAAAAAAAAAAAAA8eIEAAAAAAACx0AAAHgAAAAAADAzBngQ8wJMIEADoE7R3RAiCgCA1AiAI2CE4ZNgIIPrAlZGEIYhggADIyccYiMCOCAACAAACAAAQAAQAAAQAAAAAAAAAAA==

> <PUBCHEM_CACTVS_TAUTO_COUNT>
1

> <PUBCHEM_CACTVS_TPSA>
33.2

> <PUBCHEM_COMPONENT_COUNT>
1

> <PUBCHEM_COMPOUND_CANONICALIZED>
1

> <PUBCHEM_COMPOUND_CID>
44142360

> <PUBCHEM_COORDINATE_TYPE>
1
5
255

> <PUBCHEM_EXACT_MASS>
336.126263

> <PUBCHEM_HEAVY_ATOM_COUNT>
26

> <PUBCHEM_ISOTOPIC_ATOM_COUNT>
0

> <PUBCHEM_IUPAC_CAS_NAME>
10-prop-2-enyl-2-[2-(2-pyridinyl)ethynyl]-9-acridinone

> <PUBCHEM_IUPAC_INCHI>
InChI=1S/C23H16N2O/c1-2-15-25-21-9-4-3-8-19(21)23(26)20-16-17(11-13-22(20)25)10-12-18-7-5-6-14-24-18/h2-9,11,13-14,16H,1,15H2

> <PUBCHEM_IUPAC_INCHIKEY>
LHSUROLMIRFSKT-UHFFFAOYSA-N

> <PUBCHEM_IUPAC_NAME>
10-prop-2-enyl-2-(2-pyridin-2-ylethynyl)acridin-9-one

> <PUBCHEM_IUPAC_OPENEYE_NAME>
10-allyl-2-[2-(2-pyridyl)ethynyl]acridin-9-one

> <PUBCHEM_IUPAC_SYSTEMATIC_NAME>
10-prop-2-enyl-2-(2-pyridin-2-ylethynyl)acridin-9-one

> <PUBCHEM_IUPAC_TRADITIONAL_NAME>
10-allyl-2-[2-(2-pyridyl)ethynyl]acridin-9-one

> <PUBCHEM_MOLECULAR_FORMULA>
C23H16N2O

> <PUBCHEM_MOLECULAR_WEIGHT>
336.38594

> <PUBCHEM_MONOISOTOPIC_WEIGHT>
336.126263

> <PUBCHEM_OPENEYE_CAN_SMILES>
C=CCN1C2=C(C=C(C=C2)C#CC3=CC=CC=N3)C(=O)C4=CC=CC=C41

> <PUBCHEM_OPENEYE_ISO_SMILES>
C=CCN1C2=C(C=C(C=C2)C#CC3=CC=CC=N3)C(=O)C4=CC=CC=C41

> <PUBCHEM_TOTAL_CHARGE>
0

> <PUBCHEM_XLOGP3_AA>
4.7

$$$$
Written by BCL::WriteToMDL,6876815
MBcorina  10171218483D 1   1.00000     0.00000 
CORINA 3.49 0026  01.06.2011
 35 36  0  0  0  0  0  0  0  0999 V2000
   -4.1988   -1.5293   -2.6660 Cl  0  0  0  1  0  1  0  0  0  0  0  0
   -4.9720    4.7061    0.0699 S   0  0  0  1  0  1  0  0  0  0  0  0
   -0.0173    1.4248    0.0099 O   0  0  0  1  0  2  0  0  0  0  0  0
   -1.1520    3.6529    0.0308 N   0  0  0  1  0  2  0  0  0  0  0  0
   -2.3330    4.4065    0.0452 N   0  0  0  1  0  3  0  0  0  0  0  0
   -3.5888    2.4387    0.0457 N   0  0  0  1  0  3  0  0  0  0  0  0
    0.0021   -0.0041    0.0020 C   0  0  0  1  0  4  0  0  0  0  0  0
   -1.4117   -0.5257    0.0127 C   0  0  0  1  0  3  0  0  0  0  0  0
    1.1843    2.0578    0.0018 C   0  0  0  1  0  3  0  0  0  0  0  0
    1.2421    3.4584    0.0088 C   0  0  0  1  0  3  0  0  0  0  0  0
   -2.0713   -0.7584   -1.1792 C   0  0  0  1  0  3  0  0  0  0  0  0
   -2.0467   -0.7767    1.2150 C   0  0  0  1  0  3  0  0  0  0  0  0
    2.3576    1.3223   -0.0076 C   0  0  0  1  0  3  0  0  0  0  0  0
    2.4832    4.0982    0.0008 C   0  0  0  1  0  3  0  0  0  0  0  0
    3.5804    1.9675   -0.0153 C   0  0  0  1  0  3  0  0  0  0  0  0
    3.6422    3.3502   -0.0138 C   0  0  0  1  0  3  0  0  0  0  0  0
   -3.3694   -1.2373   -1.1692 C   0  0  0  1  0  3  0  0  0  0  0  0
   -3.3433   -1.2556    1.2256 C   0  0  0  1  0  3  0  0  0  0  0  0
   -4.0062   -1.4829    0.0340 C   0  0  0  1  0  3  0  0  0  0  0  0
   -0.0003    4.2513    0.0239 C   0  0  0  1  0  3  0  0  0  0  0  0
   -3.5289    3.7852    0.0523 C   0  0  0  1  0  3  0  0  0  0  0  0
    0.5123   -0.3556   -0.8948 H   0  0  0  1  0  1  0  0  0  0  0  0
    0.5293   -0.3651    0.8851 H   0  0  0  1  0  1  0  0  0  0  0  0
   -1.5737   -0.5661   -2.1183 H   0  0  0  1  0  1  0  0  0  0  0  0
   -1.5294   -0.5989    2.1461 H   0  0  0  1  0  1  0  0  0  0  0  0
    2.3174    0.2430   -0.0085 H   0  0  0  1  0  1  0  0  0  0  0  0
    2.5356    5.1769    0.0058 H   0  0  0  1  0  1  0  0  0  0  0  0
    4.4925    1.3893   -0.0222 H   0  0  0  1  0  1  0  0  0  0  0  0
    4.6018    3.8455   -0.0199 H   0  0  0  1  0  1  0  0  0  0  0  0
   -3.8387   -1.4518    2.1650 H   0  0  0  1  0  1  0  0  0  0  0  0
   -5.0195   -1.8565    0.0424 H   0  0  0  1  0  1  0  0  0  0  0  0
    0.0477    5.3302    0.0292 H   0  0  0  1  0  1  0  0  0  0  0  0
   -2.2898    5.3756    0.0500 H   0  0  0  1  0  1  0  0  0  0  0  0
   -4.4495    1.9915    0.0508 H   0  0  0  1  0  1  0  0  0  0  0  0
   -2.7712    1.9169    0.0357 H   0  0  0  1  0  1  0  0  0  0  0  0
  1 17  1  0  0  0  0
  2 21  2  0  0  0  0
  3  7  1  0  0  0  0
  3  9  1  0  0  0  0
  4  5  1  0  0  0  0
  4 20  2  0  0  0  0
  5 21  1  0  0  0  0
  5 33  1  0  0  0  0
  6 21  1  0  0  0  0
  6 34  1  0  0  0  0
  6 35  1  0  0  0  0
  7  8  1  0  0  0  0
  7 22  1  0  0  0  0
  7 23  1  0  0  0  0
  8 11  2  0  0  0  0
  8 12  1  0  0  0  0
  9 10  1  0  0  0  0
  9 13  2  0  0  0  0
 10 14  2  0  0  0  0
 10 20  1  0  0  0  0
 11 17  1  0  0  0  0
 11 24  1  0  0  0  0
 12 18  2  0  0  0  0
 12 25  1  0  0  0  0
 13 15  1  0  0  0  0
 13 26  1  0  0  0  0
 14 16  1  0  0  0  0
 14 27  1  0  0  0  0
 15 16  2  0  0  0  0
 15 28  1  0  0  0  0
 16 29  1  0  0  0  0
 17 19  2  0  0  0  0
 18 19  1  0  0  0  0
 18 30  1  0  0  0  0
 19 31  1  0  0  0  0
 20 32  1  0  0  0  0
M  END
> <Activity>
2.705

> <Mapped(file=504701.csv.activities,property=Cached(PUBCHEM_COMPOUND_CID))>
2.705

> <PUBCHEM_ATOM_DEF_STEREO_COUNT>
0

> <PUBCHEM_ATOM_UDEF_STEREO_COUNT>
0

> <PUBCHEM_BONDANNOTATIONS>
10  14  8
11  17  8
12  18  8
13  15  8
14  16  8
15  16  8
17  19  8
18  19  8
8  11  8
8  12  8
9  10  8
9  13  8

> <PUBCHEM_BOND_DEF_STEREO_COUNT>
1

> <PUBCHEM_BOND_UDEF_STEREO_COUNT>
0

> <PUBCHEM_CACTVS_COMPLEXITY>
367

> <PUBCHEM_CACTVS_HBOND_ACCEPTOR>
3

> <PUBCHEM_CACTVS_HBOND_DONOR>
2

> <PUBCHEM_CACTVS_ROTATABLE_BOND>
5

> <PUBCHEM_CACTVS_SUBSKEYS>
AAADccBzIABEAAAAAAAAAAAAAAAAAAAAAAAwYAAAAAAAAAABQAAAHgYYAAAADAbhmCYxBoBiBACkAjBjAAASCAAgJQEMiAAmCpgMJqKFMxqCOCC0yBEIqAeAwCAOAAAAIAAIAAAAAABAABAAAAAAAAAAAA==

> <PUBCHEM_CACTVS_TAUTO_COUNT>
3

> <PUBCHEM_CACTVS_TPSA>
91.7

> <PUBCHEM_COMPONENT_COUNT>
1

> <PUBCHEM_COMPOUND_CANONICALIZED>
1

> <PUBCHEM_COMPOUND_CID>
6876815

> <PUBCHEM_COORDINATE_TYPE>
1
5
255

> <PUBCHEM_EXACT_MASS>
319.054611

> <PUBCHEM_HEAVY_ATOM_COUNT>
21

> <PUBCHEM_ISOTOPIC_ATOM_COUNT>
0

> <PUBCHEM_IUPAC_CAS_NAME>
[(E)-[2-[(3-chlorophenyl)methoxy]phenyl]methylideneamino]thiourea

> <PUBCHEM_IUPAC_INCHI>
InChI=1S/C15H14ClN3OS/c16-13-6-3-4-11(8-13)10-20-14-7-2-1-5-12(14)9-18-19-15(17)21/h1-9H,10H2,(H3,17,19,21)/b18-9+

> <PUBCHEM_IUPAC_INCHIKEY>
LXWXXNAEICBAJF-GIJQJNRQSA-N

> <PUBCHEM_IUPAC_NAME>
[(E)-[2-[(3-chlorophenyl)methoxy]phenyl]methylideneamino]thiourea

> <PUBCHEM_IUPAC_OPENEYE_NAME>
[(E)-[2-[(3-chlorophenyl)methoxy]phenyl]methyleneamino]thiourea

> <PUBCHEM_IUPAC_SYSTEMATIC_NAME>
1-[(E)-[2-[(3-chlorophenyl)methoxy]phenyl]methylideneamino]thiourea

> <PUBCHEM_IUPAC_TRADITIONAL_NAME>
[(E)-[2-(3-chlorobenzyl)oxybenzylidene]amino]thiourea

> <PUBCHEM_MOLECULAR_FORMULA>
C15H14ClN3OS

> <PUBCHEM_MOLECULAR_WEIGHT>
319.80916

> <PUBCHEM_MONOISOTOPIC_WEIGHT>
319.054611

> <PUBCHEM_OPENEYE_CAN_SMILES>
C1=CC=C(C(=C1)C=NNC(=S)N)OCC2=CC(=CC=C2)Cl

> <PUBCHEM_OPENEYE_ISO_SMILES>
C1=CC=C(C(=C1)/C=N/NC(=S)N)OCC2=CC(=CC=C2)Cl

> <PUBCHEM_TOTAL_CHARGE>
0

> <PUBCHEM_XLOGP3_AA>
3.3

$$$$
Written by BCL::WriteToMDL,9684435
MBcorina  10171218483D 1   1.00000     0.00000 
CORINA 3.49 0026  01.06.2011
 62 64  0  0  0  0  0  0  0  0999 V2000
    2.6907    9.5953    0.2049 O   0  0  0  1  0  1  0  0  0  0  0  0
    0.8998    5.8605    1.7967 O   0  0  0  1  0  1  0  0  0  0  0  0
   -0.0687    4.5018   -0.6734 O   0  0  0  1  0  1  0  0  0  0  0  0
   -0.7075    1.9747   -0.7065 O   0  0  0  1  0  2  0  0  0  0  0  0
   -0.2628   -1.7731   -0.4029 O   0  0  0  1  0  2  0  0  0  0  0  0
   -3.3999   -5.2881   -1.0192 O   0  0  0  1  0  2  0  0  0  0  0  0
    3.1681    7.7127   -0.8547 N   0  0  0  1  0  3  0  0  0  0  0  0
    2.0704    4.2840   -0.1196 N   0  0  0  1  0  3  0  0  0  0  0  0
    1.7772    7.7581    1.0313 N   0  0  0  1  0  3  0  0  0  0  0  0
    3.6508    5.6579   -1.9675 N   0  0  0  1  0  3  0  0  0  0  0  0
   -1.0079    0.5909   -0.7121 N   0  0  0  1  0  2  0  0  0  0  0  0
    2.2391    5.6825   -0.0393 C   0  0  0  1  0  3  0  0  0  0  0  0
    3.0227    6.3489   -0.9591 C   0  0  0  1  0  3  0  0  0  0  0  0
    3.9970    8.4329   -1.8244 C   0  0  0  1  0  4  0  0  0  0  0  0
    3.2130    3.3944    0.1026 C   0  0  0  1  0  4  0  0  0  0  0  0
    2.5492    8.3898    0.1294 C   0  0  0  1  0  3  0  0  0  0  0  0
    1.6019    6.4234    0.9737 C   0  0  0  1  0  3  0  0  0  0  0  0
    3.1456    8.8648   -2.9904 C   0  0  0  1  0  3  0  0  0  0  0  0
    0.8567    3.7660   -0.4011 C   0  0  0  1  0  3  0  0  0  0  0  0
    3.2260    2.9358    1.5622 C   0  0  0  1  0  4  0  0  0  0  0  0
    2.5129   10.0937   -2.9666 C   0  0  0  1  0  3  0  0  0  0  0  0
    3.0017    8.0345   -4.0862 C   0  0  0  1  0  3  0  0  0  0  0  0
    0.6506    2.2733   -0.3772 C   0  0  0  1  0  4  0  0  0  0  0  0
    1.7318   10.4898   -4.0361 C   0  0  0  1  0  3  0  0  0  0  0  0
    2.2207    8.4307   -5.1558 C   0  0  0  1  0  3  0  0  0  0  0  0
    1.5838    9.6573   -5.1296 C   0  0  0  1  0  3  0  0  0  0  0  0
   -2.5183   -1.2504   -1.0014 C   0  0  0  1  0  3  0  0  0  0  0  0
   -1.5206   -2.1884   -0.7003 C   0  0  0  1  0  3  0  0  0  0  0  0
   -2.2058    0.1896   -0.9956 C   0  0  0  1  0  3  0  0  0  0  0  0
   -3.8088   -1.6868   -1.3125 C   0  0  0  1  0  3  0  0  0  0  0  0
   -1.8223   -3.5392   -0.7079 C   0  0  0  1  0  3  0  0  0  0  0  0
   -3.1078   -3.9619   -1.0124 C   0  0  0  1  0  3  0  0  0  0  0  0
   -4.0956   -3.0336   -1.3223 C   0  0  0  1  0  3  0  0  0  0  0  0
    0.7015   -2.7851   -0.1066 C   0  0  0  1  0  4  0  0  0  0  0  0
   -4.7430   -5.6549   -1.3412 C   0  0  0  1  0  4  0  0  0  0  0  0
    4.4333    9.3110   -1.3482 H   0  0  0  1  0  1  0  0  0  0  0  0
    4.7933    7.7784   -2.1788 H   0  0  0  1  0  1  0  0  0  0  0  0
    3.1294    2.5257   -0.5504 H   0  0  0  1  0  1  0  0  0  0  0  0
    4.1373    3.9279   -0.1189 H   0  0  0  1  0  1  0  0  0  0  0  0
    1.3417    8.2691    1.7314 H   0  0  0  1  0  1  0  0  0  0  0  0
    2.3016    2.4023    1.7837 H   0  0  0  1  0  1  0  0  0  0  0  0
    4.0760    2.2739    1.7276 H   0  0  0  1  0  1  0  0  0  0  0  0
    3.3095    3.8045    2.2153 H   0  0  0  1  0  1  0  0  0  0  0  0
    4.1661    6.1366   -2.6356 H   0  0  0  1  0  1  0  0  0  0  0  0
    3.5789    4.6916   -2.0112 H   0  0  0  1  0  1  0  0  0  0  0  0
    2.6286   10.7441   -2.1122 H   0  0  0  1  0  1  0  0  0  0  0  0
    3.4999    7.0765   -4.1069 H   0  0  0  1  0  1  0  0  0  0  0  0
    0.8754    1.8914    0.6186 H   0  0  0  1  0  1  0  0  0  0  0  0
    1.3126    1.8034   -1.1046 H   0  0  0  1  0  1  0  0  0  0  0  0
    1.2370   11.4495   -4.0171 H   0  0  0  1  0  1  0  0  0  0  0  0
    2.1086    7.7821   -6.0120 H   0  0  0  1  0  1  0  0  0  0  0  0
    0.9732    9.9666   -5.9651 H   0  0  0  1  0  1  0  0  0  0  0  0
   -2.9759    0.9103   -1.2277 H   0  0  0  1  0  1  0  0  0  0  0  0
   -4.5809   -0.9682   -1.5447 H   0  0  0  1  0  1  0  0  0  0  0  0
   -1.0562   -4.2646   -0.4769 H   0  0  0  1  0  1  0  0  0  0  0  0
   -5.0934   -3.3696   -1.5629 H   0  0  0  1  0  1  0  0  0  0  0  0
    1.6620   -2.3188    0.1129 H   0  0  0  1  0  1  0  0  0  0  0  0
    0.3707   -3.3601    0.7584 H   0  0  0  1  0  1  0  0  0  0  0  0
    0.8074   -3.4486   -0.9649 H   0  0  0  1  0  1  0  0  0  0  0  0
   -5.4249   -5.2086   -0.6175 H   0  0  0  1  0  1  0  0  0  0  0  0
   -4.9880   -5.2959   -2.3408 H   0  0  0  1  0  1  0  0  0  0  0  0
   -4.8404   -6.7401   -1.3109 H   0  0  0  1  0  1  0  0  0  0  0  0
  1 16  2  0  0  0  0
  2 17  2  0  0  0  0
  3 19  2  0  0  0  0
  4 11  1  0  0  0  0
  4 23  1  0  0  0  0
  5 28  1  0  0  0  0
  5 34  1  0  0  0  0
  6 32  1  0  0  0  0
  6 35  1  0  0  0  0
  7 13  1  0  0  0  0
  7 14  1  0  0  0  0
  7 16  1  0  0  0  0
  8 12  1  0  0  0  0
  8 15  1  0  0  0  0
  8 19  1  0  0  0  0
  9 16  1  0  0  0  0
  9 17  1  0  0  0  0
  9 40  1  0  0  0  0
 10 13  1  0  0  0  0
 10 44  1  0  0  0  0
 10 45  1  0  0  0  0
 11 29  2  0  0  0  0
 12 13  2  0  0  0  0
 12 17  1  0  0  0  0
 14 18  1  0  0  0  0
 14 36  1  0  0  0  0
 14 37  1  0  0  0  0
 15 20  1  0  0  0  0
 15 38  1  0  0  0  0
 15 39  1  0  0  0  0
 18 21  2  0  0  0  0
 18 22  1  0  0  0  0
 19 23  1  0  0  0  0
 20 41  1  0  0  0  0
 20 42  1  0  0  0  0
 20 43  1  0  0  0  0
 21 24  1  0  0  0  0
 21 46  1  0  0  0  0
 22 25  2  0  0  0  0
 22 47  1  0  0  0  0
 23 48  1  0  0  0  0
 23 49  1  0  0  0  0
 24 26  2  0  0  0  0
 24 50  1  0  0  0  0
 25 26  1  0  0  0  0
 25 51  1  0  0  0  0
 26 52  1  0  0  0  0
 27 28  2  0  0  0  0
 27 29  1  0  0  0  0
 27 30  1  0  0  0  0
 28 31  1  0  0  0  0
 29 53  1  0  0  0  0
 30 33  2  0  0  0  0
 30 54  1  0  0  0  0
 31 32  2  0  0  0  0
 31 55  1  0  0  0  0
 32 33  1  0  0  0  0
 33 56  1  0  0  0  0
 34 57  1  0  0  0  0
 34 58  1  0  0  0  0
 34 59  1  0  0  0  0
 35 60  1  0  0  0  0
 35 61  1  0  0  0  0
 35 62  1  0  0  0  0
M  END
> <Activity>
0.31691

> <Mapped(file=504701.csv.activities,property=Cached(PUBCHEM_COMPOUND_CID))>
0.31691

> <PUBCHEM_ATOM_DEF_STEREO_COUNT>
0

> <PUBCHEM_ATOM_UDEF_STEREO_COUNT>
0

> <PUBCHEM_BONDANNOTATIONS>
12  13  8
12  17  8
18  21  8
18  22  8
21  24  8
22  25  8
24  26  8
25  26  8
27  28  8
27  30  8
28  31  8
30  33  8
31  32  8
32  33  8
7  13  8
7  16  8
9  16  8
9  17  8

> <PUBCHEM_BOND_DEF_STEREO_COUNT>
1

> <PUBCHEM_BOND_UDEF_STEREO_COUNT>
0

> <PUBCHEM_CACTVS_COMPLEXITY>
825

> <PUBCHEM_CACTVS_HBOND_ACCEPTOR>
8

> <PUBCHEM_CACTVS_HBOND_DONOR>
2

> <PUBCHEM_CACTVS_ROTATABLE_BOND>
10

> <PUBCHEM_CACTVS_SUBSKEYS>
AAADceB7uAAAAAAAAAAAAAAAAAAAAAAAAAAwYIAAAAAAAAABQAAAHgAUAAAADAzhmAYzBoPQBACoAjVzUAKCCAAgIAAIiADuDNiOZ6KEsTuUMChtxzeYqEeQ4CwOIAAACAAIAABAAAAQABAAAAAAAAAAAA==

> <PUBCHEM_CACTVS_TAUTO_COUNT>
8

> <PUBCHEM_CACTVS_TPSA>
136

> <PUBCHEM_COMPONENT_COUNT>
1

> <PUBCHEM_COMPOUND_CANONICALIZED>
1

> <PUBCHEM_COMPOUND_CID>
9684435

> <PUBCHEM_COORDINATE_TYPE>
1
5
255

> <PUBCHEM_EXACT_MASS>
481.196134

> <PUBCHEM_HEAVY_ATOM_COUNT>
35

> <PUBCHEM_ISOTOPIC_ATOM_COUNT>
0

> <PUBCHEM_IUPAC_CAS_NAME>
N-[6-amino-2,4-dioxo-1-(phenylmethyl)-5-pyrimidinyl]-2-[(E)-(2,4-dimethoxyphenyl)methylideneamino]oxy-N-ethylacetamide

> <PUBCHEM_IUPAC_INCHI>
InChI=1S/C24H27N5O6/c1-4-28(20(30)15-35-26-13-17-10-11-18(33-2)12-19(17)34-3)21-22(25)29(24(32)27-23(21)31)14-16-8-6-5-7-9-16/h5-13H,4,14-15,25H2,1-3H3,(H,27,31,32)/b26-13+

> <PUBCHEM_IUPAC_INCHIKEY>
VZXGLUNPCXMDDW-LGJNPRDNSA-N

> <PUBCHEM_IUPAC_NAME>
N-(6-amino-1-benzyl-2,4-dioxopyrimidin-5-yl)-2-[(E)-(2,4-dimethoxyphenyl)methylideneamino]oxy-N-ethylacetamide

> <PUBCHEM_IUPAC_OPENEYE_NAME>
N-(6-amino-1-benzyl-2,4-dioxo-pyrimidin-5-yl)-2-[(E)-(2,4-dimethoxyphenyl)methyleneamino]oxy-N-ethyl-acetamide

> <PUBCHEM_IUPAC_SYSTEMATIC_NAME>
N-[6-azanyl-2,4-bis(oxidanylidene)-1-(phenylmethyl)pyrimidin-5-yl]-2-[(E)-(2,4-dimethoxyphenyl)methylideneamino]oxy-N-ethyl-ethanamide

> <PUBCHEM_IUPAC_TRADITIONAL_NAME>
N-(6-amino-1-benzyl-2,4-diketo-pyrimidin-5-yl)-2-[(E)-(2,4-dimethoxybenzylidene)amino]oxy-N-ethyl-acetamide

> <PUBCHEM_MOLECULAR_FORMULA>
C24H27N5O6

> <PUBCHEM_MOLECULAR_WEIGHT>
481.50108

> <PUBCHEM_MONOISOTOPIC_WEIGHT>
481.196134

> <PUBCHEM_OPENEYE_CAN_SMILES>
CCN(C1=C(N(C(=O)NC1=O)CC2=CC=CC=C2)N)C(=O)CON=CC3=C(C=C(C=C3)OC)OC

> <PUBCHEM_OPENEYE_ISO_SMILES>
CCN(C1=C(N(C(=O)NC1=O)CC2=CC=CC=C2)N)C(=O)CO/N=C/C3=C(C=C(C=C3)OC)OC

> <PUBCHEM_TOTAL_CHARGE>
0

> <PUBCHEM_XLOGP3_AA>
1.9

$$$$
Written by BCL::WriteToMDL,5807995
MBcorina  10171218483D 1   1.00000     0.00000 
CORINA 3.49 0026  01.06.2011
 41 43  0  0  0  0  0  0  0  0999 V2000
   -0.0164    1.3557    0.0095 O   0  0  0  1  0  2  0  0  0  0  0  0
   -2.3802   -0.0522    0.0250 O   0  0  0  1  0  2  0  0  0  0  0  0
    7.8138   -7.2417   -0.1132 O   0  0  0  1  0  1  0  0  0  0  0  0
    5.2751   -6.4599   -0.0839 N   0  0  0  1  0  3  0  0  0  0  0  0
    3.8916   -6.2144   -0.0682 N   0  0  0  1  0  3  0  0  0  0  0  0
    4.9487   -4.2942   -0.0697 N   0  0  0  1  0  2  0  0  0  0  0  0
    5.8851   -5.2338   -0.0842 C   0  0  0  1  0  3  0  0  0  0  0  0
    3.7421   -4.8508   -0.0598 C   0  0  0  1  0  3  0  0  0  0  0  0
    7.3308   -4.9989   -0.0978 C   0  0  0  1  0  3  0  0  0  0  0  0
    1.2219   -2.0782   -0.0203 C   0  0  0  1  0  3  0  0  0  0  0  0
    2.5119   -4.1550   -0.0438 C   0  0  0  1  0  3  0  0  0  0  0  0
    2.4998   -2.8009   -0.0369 C   0  0  0  1  0  3  0  0  0  0  0  0
    1.2069   -0.6777   -0.0131 C   0  0  0  1  0  3  0  0  0  0  0  0
    0.0021   -0.0041    0.0020 C   0  0  0  1  0  3  0  0  0  0  0  0
    0.0140   -2.7871   -0.0171 C   0  0  0  1  0  3  0  0  0  0  0  0
   -1.1964   -0.7176    0.0101 C   0  0  0  1  0  3  0  0  0  0  0  0
   -1.1830   -2.1065   -0.0024 C   0  0  0  1  0  3  0  0  0  0  0  0
    8.2335   -6.0902   -0.1122 C   0  0  0  1  0  3  0  0  0  0  0  0
    7.8363   -3.6919   -0.1024 C   0  0  0  1  0  3  0  0  0  0  0  0
    9.6123   -5.8383   -0.1250 C   0  0  0  1  0  3  0  0  0  0  0  0
    9.1847   -3.4821   -0.1150 C   0  0  0  1  0  3  0  0  0  0  0  0
   10.0708   -4.5529   -0.1234 C   0  0  0  1  0  3  0  0  0  0  0  0
    1.2479    2.0217    0.0010 C   0  0  0  1  0  4  0  0  0  0  0  0
   -3.5695   -0.8443    0.0326 C   0  0  0  1  0  4  0  0  0  0  0  0
    5.7115   -7.3261   -0.0893 H   0  0  0  1  0  1  0  0  0  0  0  0
    3.1834   -6.8772   -0.0640 H   0  0  0  1  0  1  0  0  0  0  0  0
    1.5814   -4.7034   -0.0372 H   0  0  0  1  0  1  0  0  0  0  0  0
    3.4302   -2.2526   -0.0436 H   0  0  0  1  0  1  0  0  0  0  0  0
    2.1355   -0.1262   -0.0193 H   0  0  0  1  0  1  0  0  0  0  0  0
    0.0213   -3.8670   -0.0271 H   0  0  0  1  0  1  0  0  0  0  0  0
   -2.1139   -2.6541   -0.0003 H   0  0  0  1  0  1  0  0  0  0  0  0
    7.1589   -2.8507   -0.0964 H   0  0  0  1  0  1  0  0  0  0  0  0
   10.3116   -6.6613   -0.1357 H   0  0  0  1  0  1  0  0  0  0  0  0
    9.5678   -2.4723   -0.1186 H   0  0  0  1  0  1  0  0  0  0  0  0
   11.1344   -4.3655   -0.1329 H   0  0  0  1  0  1  0  0  0  0  0  0
    1.8173    1.7317    0.8840 H   0  0  0  1  0  1  0  0  0  0  0  0
    1.8003    1.7413   -0.8958 H   0  0  0  1  0  1  0  0  0  0  0  0
    1.0905    3.1003    0.0083 H   0  0  0  1  0  1  0  0  0  0  0  0
   -4.4415   -0.1904    0.0443 H   0  0  0  1  0  1  0  0  0  0  0  0
   -3.5958   -1.4689   -0.8604 H   0  0  0  1  0  1  0  0  0  0  0  0
   -3.5785   -1.4778    0.9195 H   0  0  0  1  0  1  0  0  0  0  0  0
  1 14  1  0  0  0  0
  1 23  1  0  0  0  0
  2 16  1  0  0  0  0
  2 24  1  0  0  0  0
  3 18  2  0  0  0  0
  4  5  1  0  0  0  0
  4  7  1  0  0  0  0
  4 25  1  0  0  0  0
  5  8  1  0  0  0  0
  5 26  1  0  0  0  0
  6  7  1  0  0  0  0
  6  8  2  0  0  0  0
  7  9  2  0  0  0  0
  8 11  1  0  0  0  0
  9 18  1  0  0  0  0
  9 19  1  0  0  0  0
 10 12  1  0  0  0  0
 10 13  2  0  0  0  0
 10 15  1  0  0  0  0
 11 12  2  0  0  0  0
 11 27  1  0  0  0  0
 12 28  1  0  0  0  0
 13 14  1  0  0  0  0
 13 29  1  0  0  0  0
 14 16  2  0  0  0  0
 15 17  2  0  0  0  0
 15 30  1  0  0  0  0
 16 17  1  0  0  0  0
 17 31  1  0  0  0  0
 18 20  1  0  0  0  0
 19 21  2  0  0  0  0
 19 32  1  0  0  0  0
 20 22  2  0  0  0  0
 20 33  1  0  0  0  0
 21 22  1  0  0  0  0
 21 34  1  0  0  0  0
 22 35  1  0  0  0  0
 23 36  1  0  0  0  0
 23 37  1  0  0  0  0
 23 38  1  0  0  0  0
 24 39  1  0  0  0  0
 24 40  1  0  0  0  0
 24 41  1  0  0  0  0
M  END
> <Activity>
2.514

> <Mapped(file=504701.csv.activities,property=Cached(PUBCHEM_COMPOUND_CID))>
2.514

> <PUBCHEM_ATOM_DEF_STEREO_COUNT>
0

> <PUBCHEM_ATOM_UDEF_STEREO_COUNT>
0

> <PUBCHEM_BONDANNOTATIONS>
10  13  8
10  15  8
13  14  8
14  16  8
15  17  8
16  17  8

> <PUBCHEM_BOND_DEF_STEREO_COUNT>
2

> <PUBCHEM_BOND_UDEF_STEREO_COUNT>
0

> <PUBCHEM_CACTVS_COMPLEXITY>
646

> <PUBCHEM_CACTVS_HBOND_ACCEPTOR>
5

> <PUBCHEM_CACTVS_HBOND_DONOR>
2

> <PUBCHEM_CACTVS_ROTATABLE_BOND>
4

> <PUBCHEM_CACTVS_SUBSKEYS>
AAADceB7MAAAAAAAAAAAAAAAAAAAAQAAAAAwQAAAAAAAAAABAAAAHgAYAAAADASBmAIzBoJiBACoAqJyZACCCAEgIAIcqAEWiNgNJiKEMRqAMCIk0BEKqceAwBAOIAABAAAAQABAAAIAAACAAAAAAAAAAA==

> <PUBCHEM_CACTVS_TAUTO_COUNT>
25

> <PUBCHEM_CACTVS_TPSA>
72

> <PUBCHEM_COMPONENT_COUNT>
1

> <PUBCHEM_COMPOUND_CANONICALIZED>
1

> <PUBCHEM_COMPOUND_CID>
5807995

> <PUBCHEM_COORDINATE_TYPE>
1
5
255

> <PUBCHEM_EXACT_MASS>
323.126991

> <PUBCHEM_HEAVY_ATOM_COUNT>
24

> <PUBCHEM_ISOTOPIC_ATOM_COUNT>
0

> <PUBCHEM_IUPAC_CAS_NAME>
(6Z)-6-[5-[(E)-2-(3,4-dimethoxyphenyl)ethenyl]-1,2-dihydro-1,2,4-triazol-3-ylidene]-1-cyclohexa-2,4-dienone

> <PUBCHEM_IUPAC_INCHI>
InChI=1S/C18H17N3O3/c1-23-15-9-7-12(11-16(15)24-2)8-10-17-19-18(21-20-17)13-5-3-4-6-14(13)22/h3-11,21H,1-2H3,(H,19,20)/b10-8+,18-13-

> <PUBCHEM_IUPAC_INCHIKEY>
CVBAXJUKIQLAJS-FUIQUSNNSA-N

> <PUBCHEM_IUPAC_NAME>
(6Z)-6-[5-[(E)-2-(3,4-dimethoxyphenyl)ethenyl]-1,2-dihydro-1,2,4-triazol-3-ylidene]cyclohexa-2,4-dien-1-one

> <PUBCHEM_IUPAC_OPENEYE_NAME>
(6Z)-6-[5-[(E)-2-(3,4-dimethoxyphenyl)vinyl]-1,2-dihydro-1,2,4-triazol-3-ylidene]cyclohexa-2,4-dien-1-one

> <PUBCHEM_IUPAC_SYSTEMATIC_NAME>
(6Z)-6-[5-[(E)-2-(3,4-dimethoxyphenyl)ethenyl]-1,2-dihydro-1,2,4-triazol-3-ylidene]cyclohexa-2,4-dien-1-one

> <PUBCHEM_IUPAC_TRADITIONAL_NAME>
(6Z)-6-[5-[(E)-2-(3,4-dimethoxyphenyl)vinyl]-1,2-dihydro-1,2,4-triazol-3-ylidene]cyclohexa-2,4-dien-1-one

> <PUBCHEM_MOLECULAR_FORMULA>
C18H17N3O3

> <PUBCHEM_MOLECULAR_WEIGHT>
323.34588

> <PUBCHEM_MONOISOTOPIC_WEIGHT>
323.126991

> <PUBCHEM_OPENEYE_CAN_SMILES>
COC1=C(C=C(C=C1)C=CC2=NC(=C3C=CC=CC3=O)NN2)OC

> <PUBCHEM_OPENEYE_ISO_SMILES>
COC1=C(C=C(C=C1)/C=C/C2=N/C(=C/3\C=CC=CC3=O)/NN2)OC

> <PUBCHEM_TOTAL_CHARGE>
0

> <PUBCHEM_XLOGP3_AA>
2.8

$$$$
Written by BCL::WriteToMDL,2351884
MBcorina  10171218483D 1   1.00000     0.00000 
CORINA 3.49 0026  01.06.2011
 47 50  0  0  0  0  0  0  0  0999 V2000
   -7.3242    6.3862   12.5254 Br  0  0  0  1  0  1  0  0  0  0  0  0
   -3.3207    8.6657    7.4023 Cl  0  0  0  1  0  1  0  0  0  0  0  0
    0.3648    2.0278    0.1045 S   0  0  0  1  0  4  0  0  0  0  0  0
   -3.7874    6.2178    7.1310 S   0  0  0  1  0  2  0  0  0  0  0  0
    1.8429   -1.8331    1.1759 S   0  0  0  1  0  2  0  0  0  0  0  0
    1.1692    3.1881   -0.0558 O   0  0  0  1  0  1  0  0  0  0  0  0
   -0.4861    1.5248   -0.9164 O   0  0  0  1  0  1  0  0  0  0  0  0
   -2.5466    5.1742    4.8517 O   0  0  0  1  0  1  0  0  0  0  0  0
   -3.0865    3.0225    4.8207 N   0  0  0  1  0  3  0  0  0  0  0  0
    1.3964    0.7951    0.5030 N   0  0  0  1  0  3  0  0  0  0  0  0
   -0.3576   -0.8002    0.7067 N   0  0  0  1  0  2  0  0  0  0  0  0
   -4.8940    7.5061    9.3041 C   0  0  0  1  0  3  0  0  0  0  0  0
   -5.6715    7.5392   10.4877 C   0  0  0  1  0  3  0  0  0  0  0  0
   -0.6609    2.3232    1.5064 C   0  0  0  1  0  3  0  0  0  0  0  0
   -4.7483    6.2878    8.6063 C   0  0  0  1  0  3  0  0  0  0  0  0
   -2.2719    2.7879    3.7074 C   0  0  0  1  0  3  0  0  0  0  0  0
   -0.2688    3.2364    2.4679 C   0  0  0  1  0  3  0  0  0  0  0  0
   -1.8589    1.6456    1.6399 C   0  0  0  1  0  3  0  0  0  0  0  0
   -4.2784    8.6839    8.8501 C   0  0  0  1  0  3  0  0  0  0  0  0
   -6.2834    6.3596   10.9468 C   0  0  0  1  0  3  0  0  0  0  0  0
   -1.0707    3.4706    3.5677 C   0  0  0  1  0  3  0  0  0  0  0  0
   -2.6653    1.8753    2.7373 C   0  0  0  1  0  3  0  0  0  0  0  0
   -5.3654    5.1523    9.0896 C   0  0  0  1  0  3  0  0  0  0  0  0
   -5.8165    8.7525   11.1824 C   0  0  0  1  0  3  0  0  0  0  0  0
   -3.9167    4.4758    6.6420 C   0  0  0  1  0  4  0  0  0  0  0  0
   -6.1256    5.1969   10.2537 C   0  0  0  1  0  3  0  0  0  0  0  0
   -3.1339    4.2505    5.3741 C   0  0  0  1  0  3  0  0  0  0  0  0
   -4.4364    9.8412    9.5526 C   0  0  0  1  0  3  0  0  0  0  0  0
   -5.2101    9.8762   10.7106 C   0  0  0  1  0  3  0  0  0  0  0  0
    0.8964   -0.4728    0.7555 C   0  0  0  1  0  3  0  0  0  0  0  0
    0.3921   -2.8283    1.2664 C   0  0  0  1  0  3  0  0  0  0  0  0
   -0.6571   -2.0584    0.9765 C   0  0  0  1  0  3  0  0  0  0  0  0
    0.6656    3.7668    2.3589 H   0  0  0  1  0  1  0  0  0  0  0  0
   -2.1644    0.9363    0.8850 H   0  0  0  1  0  1  0  0  0  0  0  0
   -0.7620    4.1810    4.3204 H   0  0  0  1  0  1  0  0  0  0  0  0
   -3.5987    1.3425    2.8432 H   0  0  0  1  0  1  0  0  0  0  0  0
   -5.2563    4.2182    8.5586 H   0  0  0  1  0  1  0  0  0  0  0  0
   -6.4065    8.7932   12.0861 H   0  0  0  1  0  1  0  0  0  0  0  0
   -3.5139    3.8451    7.4346 H   0  0  0  1  0  1  0  0  0  0  0  0
   -4.9633    4.2226    6.4727 H   0  0  0  1  0  1  0  0  0  0  0  0
   -6.5989    4.2955   10.6138 H   0  0  0  1  0  1  0  0  0  0  0  0
   -3.6170    2.3014    5.1941 H   0  0  0  1  0  1  0  0  0  0  0  0
   -3.9618   10.7458    9.2020 H   0  0  0  1  0  1  0  0  0  0  0  0
   -5.3237   10.8069   11.2465 H   0  0  0  1  0  1  0  0  0  0  0  0
    2.3505    0.9603    0.5596 H   0  0  0  1  0  1  0  0  0  0  0  0
    0.3584   -3.8791    1.5137 H   0  0  0  1  0  1  0  0  0  0  0  0
   -1.6699   -2.4330    0.9630 H   0  0  0  1  0  1  0  0  0  0  0  0
  1 20  1  0  0  0  0
  2 19  1  0  0  0  0
  3  6  2  0  0  0  0
  3  7  2  0  0  0  0
  3 10  1  0  0  0  0
  3 14  1  0  0  0  0
  4 15  1  0  0  0  0
  4 25  1  0  0  0  0
  5 30  1  0  0  0  0
  5 31  1  0  0  0  0
  8 27  2  0  0  0  0
  9 16  1  0  0  0  0
  9 27  1  0  0  0  0
  9 42  1  0  0  0  0
 10 30  1  0  0  0  0
 10 45  1  0  0  0  0
 11 30  2  0  0  0  0
 11 32  1  0  0  0  0
 12 13  1  0  0  0  0
 12 15  2  0  0  0  0
 12 19  1  0  0  0  0
 13 20  2  0  0  0  0
 13 24  1  0  0  0  0
 14 17  2  0  0  0  0
 14 18  1  0  0  0  0
 15 23  1  0  0  0  0
 16 21  2  0  0  0  0
 16 22  1  0  0  0  0
 17 21  1  0  0  0  0
 17 33  1  0  0  0  0
 18 22  2  0  0  0  0
 18 34  1  0  0  0  0
 19 28  2  0  0  0  0
 20 26  1  0  0  0  0
 21 35  1  0  0  0  0
 22 36  1  0  0  0  0
 23 26  2  0  0  0  0
 23 37  1  0  0  0  0
 24 29  2  0  0  0  0
 24 38  1  0  0  0  0
 25 27  1  0  0  0  0
 25 39  1  0  0  0  0
 25 40  1  0  0  0  0
 26 41  1  0  0  0  0
 28 29  1  0  0  0  0
 28 43  1  0  0  0  0
 29 44  1  0  0  0  0
 31 32  2  0  0  0  0
 31 46  1  0  0  0  0
 32 47  1  0  0  0  0
M  END
> <Activity>
1.434

> <Mapped(file=504701.csv.activities,property=Cached(PUBCHEM_COMPOUND_CID))>
1.434

> <PUBCHEM_ATOM_DEF_STEREO_COUNT>
0

> <PUBCHEM_ATOM_UDEF_STEREO_COUNT>
0

> <PUBCHEM_BONDANNOTATIONS>
11  30  8
11  32  8
12  13  8
12  15  8
12  19  8
13  20  8
13  24  8
14  17  8
14  18  8
15  23  8
16  21  8
16  22  8
17  21  8
18  22  8
19  28  8
20  26  8
23  26  8
24  29  8
28  29  8
31  32  8
5  30  8
5  31  8

> <PUBCHEM_BOND_DEF_STEREO_COUNT>
0

> <PUBCHEM_BOND_UDEF_STEREO_COUNT>
0

> <PUBCHEM_CACTVS_COMPLEXITY>
748

> <PUBCHEM_CACTVS_HBOND_ACCEPTOR>
5

> <PUBCHEM_CACTVS_HBOND_DONOR>
2

> <PUBCHEM_CACTVS_ROTATABLE_BOND>
7

> <PUBCHEM_CACTVS_SUBSKEYS>
AAADccB7MABkEAAAAAAAAAAAAAAAAWAAAAAwYMAAAAAAAADB1AAAHgZQQAABrArF2iS90dLIEAqsAjV3dHDC8LlxDz1IyBwYZqiIICLhk5GEIAhglALoyjcQgIAOgAUAsAAVgAAACgFgACsAAAAAAAAAAA==

> <PUBCHEM_CACTVS_TAUTO_COUNT>
6

> <PUBCHEM_CACTVS_TPSA>
150

> <PUBCHEM_COMPONENT_COUNT>
1

> <PUBCHEM_COMPOUND_CANONICALIZED>
1

> <PUBCHEM_COMPOUND_CID>
2351884

> <PUBCHEM_COORDINATE_TYPE>
1
5
255

> <PUBCHEM_EXACT_MASS>
566.914744

> <PUBCHEM_HEAVY_ATOM_COUNT>
32

> <PUBCHEM_ISOTOPIC_ATOM_COUNT>
0

> <PUBCHEM_IUPAC_CAS_NAME>
2-[(4-bromo-8-chloro-1-naphthalenyl)thio]-N-[4-(2-thiazolylsulfamoyl)phenyl]acetamide

> <PUBCHEM_IUPAC_INCHI>
InChI=1S/C21H15BrClN3O3S3/c22-16-8-9-18(20-15(16)2-1-3-17(20)23)31-12-19(27)25-13-4-6-14(7-5-13)32(28,29)26-21-24-10-11-30-21/h1-11H,12H2,(H,24,26)(H,25,27)

> <PUBCHEM_IUPAC_INCHIKEY>
LFEWVFGQDZKNAT-UHFFFAOYSA-N

> <PUBCHEM_IUPAC_NAME>
2-(4-bromo-8-chloronaphthalen-1-yl)sulfanyl-N-[4-(1,3-thiazol-2-ylsulfamoyl)phenyl]acetamide

> <PUBCHEM_IUPAC_OPENEYE_NAME>
2-[(4-bromo-8-chloro-1-naphthyl)sulfanyl]-N-[4-(thiazol-2-ylsulfamoyl)phenyl]acetamide

> <PUBCHEM_IUPAC_SYSTEMATIC_NAME>
2-(4-bromanyl-8-chloranyl-naphthalen-1-yl)sulfanyl-N-[4-(1,3-thiazol-2-ylsulfamoyl)phenyl]ethanamide

> <PUBCHEM_IUPAC_TRADITIONAL_NAME>
2-[(4-bromo-8-chloro-1-naphthyl)thio]-N-[4-(thiazol-2-ylsulfamoyl)phenyl]acetamide

> <PUBCHEM_MOLECULAR_FORMULA>
C21H15BrClN3O3S3

> <PUBCHEM_MOLECULAR_WEIGHT>
568.9141

> <PUBCHEM_MONOISOTOPIC_WEIGHT>
566.914744

> <PUBCHEM_OPENEYE_CAN_SMILES>
C1=CC2=C(C=CC(=C2C(=C1)Cl)SCC(=O)NC3=CC=C(C=C3)S(=O)(=O)NC4=NC=CS4)Br

> <PUBCHEM_OPENEYE_ISO_SMILES>
C1=CC2=C(C=CC(=C2C(=C1)Cl)SCC(=O)NC3=CC=C(C=C3)S(=O)(=O)NC4=NC=CS4)Br

> <PUBCHEM_TOTAL_CHARGE>
0

> <PUBCHEM_XLOGP3_AA>
5.8

$$$$
Written by BCL::WriteToMDL,2983047
MBcorina  10171218483D 1   1.00000     0.00000 
CORINA 3.49 0026  01.06.2011
 48 50  0  0  0  0  0  0  0  0999 V2000
    0.2781    1.6866    0.1025 S   0  0  0  1  0  4  0  0  0  0  0  0
   -0.8373    8.7785   -6.6776 S   0  0  0  1  0  2  0  0  0  0  0  0
   -2.5004    3.5260    4.9454 F   0  0  0  1  0  1  0  0  0  0  0  0
    0.3333    0.2691    0.1855 O   0  0  0  1  0  1  0  0  0  0  0  0
    1.4334    2.5029   -0.0318 O   0  0  0  1  0  1  0  0  0  0  0  0
   -0.8454    5.5984   -3.2451 O   0  0  0  1  0  1  0  0  0  0  0  0
   -0.6979    2.0418   -1.1874 N   0  0  0  1  0  3  0  0  0  0  0  0
   -3.0029    6.0036   -2.9238 N   0  0  0  1  0  3  0  0  0  0  0  0
   -1.9643    3.9921   -1.9268 C   0  0  0  1  0  4  0  0  0  0  0  0
   -2.9660    3.0249   -2.5619 C   0  0  0  1  0  4  0  0  0  0  0  0
   -0.5826    3.3322   -1.8803 C   0  0  0  1  0  4  0  0  0  0  0  0
   -3.0630    1.7506   -1.7128 C   0  0  0  1  0  4  0  0  0  0  0  0
   -1.6913    1.0701   -1.6644 C   0  0  0  1  0  4  0  0  0  0  0  0
   -1.8962    5.2552   -2.7459 C   0  0  0  1  0  3  0  0  0  0  0  0
   -0.5547    2.2379    1.5541 C   0  0  0  1  0  3  0  0  0  0  0  0
   -1.4083    1.3838    2.2272 C   0  0  0  1  0  3  0  0  0  0  0  0
   -0.3497    3.5224    2.0222 C   0  0  0  1  0  3  0  0  0  0  0  0
   -2.9201    7.2247   -3.6020 C   0  0  0  1  0  3  0  0  0  0  0  0
   -2.0620    1.8151    3.3658 C   0  0  0  1  0  3  0  0  0  0  0  0
   -1.0019    3.9558    3.1609 C   0  0  0  1  0  3  0  0  0  0  0  0
   -2.0368    7.3721   -4.6610 C   0  0  0  1  0  3  0  0  0  0  0  0
   -1.8615    3.1031    3.8326 C   0  0  0  1  0  3  0  0  0  0  0  0
   -3.7271    8.2892   -3.2187 C   0  0  0  1  0  3  0  0  0  0  0  0
   -1.9581    8.5855   -5.3318 C   0  0  0  1  0  3  0  0  0  0  0  0
   -3.6468    9.4953   -3.8878 C   0  0  0  1  0  3  0  0  0  0  0  0
   -2.7644    9.6477   -4.9398 C   0  0  0  1  0  3  0  0  0  0  0  0
   -1.1123   10.4953   -7.1947 C   0  0  0  1  0  4  0  0  0  0  0  0
   -2.2835    4.2324   -0.9127 H   0  0  0  1  0  1  0  0  0  0  0  0
   -3.9448    3.5013   -2.6187 H   0  0  0  1  0  1  0  0  0  0  0  0
   -2.6313    2.7627   -3.5655 H   0  0  0  1  0  1  0  0  0  0  0  0
    0.1118    3.9761   -1.3406 H   0  0  0  1  0  1  0  0  0  0  0  0
   -0.2205    3.1707   -2.8956 H   0  0  0  1  0  1  0  0  0  0  0  0
   -3.3724    2.0106   -0.7005 H   0  0  0  1  0  1  0  0  0  0  0  0
   -3.7941    1.0737   -2.1548 H   0  0  0  1  0  1  0  0  0  0  0  0
   -1.4178    0.7278   -2.6624 H   0  0  0  1  0  1  0  0  0  0  0  0
   -1.7287    0.2208   -0.9821 H   0  0  0  1  0  1  0  0  0  0  0  0
   -3.8567    5.6957   -2.5817 H   0  0  0  1  0  1  0  0  0  0  0  0
   -1.5646    0.3792    1.8628 H   0  0  0  1  0  1  0  0  0  0  0  0
    0.3208    4.1874    1.4981 H   0  0  0  1  0  1  0  0  0  0  0  0
   -2.7293    1.1479    3.8911 H   0  0  0  1  0  1  0  0  0  0  0  0
   -0.8419    4.9595    3.5262 H   0  0  0  1  0  1  0  0  0  0  0  0
   -1.4113    6.5451   -4.9632 H   0  0  0  1  0  1  0  0  0  0  0  0
   -4.4182    8.1733   -2.3969 H   0  0  0  1  0  1  0  0  0  0  0  0
   -4.2754   10.3206   -3.5879 H   0  0  0  1  0  1  0  0  0  0  0  0
   -2.7038   10.5920   -5.4605 H   0  0  0  1  0  1  0  0  0  0  0  0
   -2.1525   10.6223   -7.4943 H   0  0  0  1  0  1  0  0  0  0  0  0
   -0.8891   11.1651   -6.3642 H   0  0  0  1  0  1  0  0  0  0  0  0
   -0.4605   10.7302   -8.0362 H   0  0  0  1  0  1  0  0  0  0  0  0
  1  4  2  0  0  0  0
  1  5  2  0  0  0  0
  1  7  1  0  0  0  0
  1 15  1  0  0  0  0
  2 24  1  0  0  0  0
  2 27  1  0  0  0  0
  3 22  1  0  0  0  0
  6 14  2  0  0  0  0
  7 11  1  0  0  0  0
  7 13  1  0  0  0  0
  8 14  1  0  0  0  0
  8 18  1  0  0  0  0
  8 37  1  0  0  0  0
  9 10  1  0  0  0  0
  9 11  1  0  0  0  0
  9 14  1  0  0  0  0
  9 28  1  0  0  0  0
 10 12  1  0  0  0  0
 10 29  1  0  0  0  0
 10 30  1  0  0  0  0
 11 31  1  0  0  0  0
 11 32  1  0  0  0  0
 12 13  1  0  0  0  0
 12 33  1  0  0  0  0
 12 34  1  0  0  0  0
 13 35  1  0  0  0  0
 13 36  1  0  0  0  0
 15 16  2  0  0  0  0
 15 17  1  0  0  0  0
 16 19  1  0  0  0  0
 16 38  1  0  0  0  0
 17 20  2  0  0  0  0
 17 39  1  0  0  0  0
 18 21  2  0  0  0  0
 18 23  1  0  0  0  0
 19 22  2  0  0  0  0
 19 40  1  0  0  0  0
 20 22  1  0  0  0  0
 20 41  1  0  0  0  0
 21 24  1  0  0  0  0
 21 42  1  0  0  0  0
 23 25  2  0  0  0  0
 23 43  1  0  0  0  0
 24 26  2  0  0  0  0
 25 26  1  0  0  0  0
 25 44  1  0  0  0  0
 26 45  1  0  0  0  0
 27 46  1  0  0  0  0
 27 47  1  0  0  0  0
 27 48  1  0  0  0  0
M  END
> <Activity>
1.594

> <Mapped(file=504701.csv.activities,property=Cached(PUBCHEM_COMPOUND_CID))>
1.594

> <PUBCHEM_ATOM_DEF_STEREO_COUNT>
0

> <PUBCHEM_ATOM_UDEF_STEREO_COUNT>
1

> <PUBCHEM_BONDANNOTATIONS>
15  16  8
15  17  8
16  19  8
17  20  8
18  21  8
18  23  8
19  22  8
20  22  8
21  24  8
23  25  8
24  26  8
25  26  8
9  14  3

> <PUBCHEM_BOND_DEF_STEREO_COUNT>
0

> <PUBCHEM_BOND_UDEF_STEREO_COUNT>
0

> <PUBCHEM_CACTVS_COMPLEXITY>
603

> <PUBCHEM_CACTVS_HBOND_ACCEPTOR>
6

> <PUBCHEM_CACTVS_HBOND_DONOR>
1

> <PUBCHEM_CACTVS_ROTATABLE_BOND>
5

> <PUBCHEM_CACTVS_SUBSKEYS>
AAADceB7MQBgAAAAAAAAAAAAAAAAAAAAAAA8YIAAAAAAAAABQAAAHwQQQAAADQjB0AyywYLAAAqIACVSUHDCABAhChAIiBkIZIgIIDrg0ZGEIAxglADIyAcYAQAMAAAAACAAAAAAAAAAQAAAAAAAAAAAAA==

> <PUBCHEM_CACTVS_TAUTO_COUNT>
3

> <PUBCHEM_CACTVS_TPSA>
100

> <PUBCHEM_COMPONENT_COUNT>
1

> <PUBCHEM_COMPOUND_CANONICALIZED>
1

> <PUBCHEM_COMPOUND_CID>
2983047

> <PUBCHEM_COORDINATE_TYPE>
1
5
255

> <PUBCHEM_EXACT_MASS>
408.097763

> <PUBCHEM_HEAVY_ATOM_COUNT>
27

> <PUBCHEM_ISOTOPIC_ATOM_COUNT>
0

> <PUBCHEM_IUPAC_CAS_NAME>
1-(4-fluorophenyl)sulfonyl-N-[3-(methylthio)phenyl]-3-piperidinecarboxamide

> <PUBCHEM_IUPAC_INCHI>
InChI=1S/C19H21FN2O3S2/c1-26-17-6-2-5-16(12-17)21-19(23)14-4-3-11-22(13-14)27(24,25)18-9-7-15(20)8-10-18/h2,5-10,12,14H,3-4,11,13H2,1H3,(H,21,23)

> <PUBCHEM_IUPAC_INCHIKEY>
YHNMXXKQLSIUHU-UHFFFAOYSA-N

> <PUBCHEM_IUPAC_NAME>
1-(4-fluorophenyl)sulfonyl-N-(3-methylsulfanylphenyl)piperidine-3-carboxamide

> <PUBCHEM_IUPAC_OPENEYE_NAME>
1-(4-fluorophenyl)sulfonyl-N-(3-methylsulfanylphenyl)piperidine-3-carboxamide

> <PUBCHEM_IUPAC_SYSTEMATIC_NAME>
1-(4-fluorophenyl)sulfonyl-N-(3-methylsulfanylphenyl)piperidine-3-carboxamide

> <PUBCHEM_IUPAC_TRADITIONAL_NAME>
1-(4-fluorophenyl)sulfonyl-N-[3-(methylthio)phenyl]nipecotamide

> <PUBCHEM_MOLECULAR_FORMULA>
C19H21FN2O3S2

> <PUBCHEM_MOLECULAR_WEIGHT>
408.510043

> <PUBCHEM_MONOISOTOPIC_WEIGHT>
408.097763

> <PUBCHEM_OPENEYE_CAN_SMILES>
CSC1=CC=CC(=C1)NC(=O)C2CCCN(C2)S(=O)(=O)C3=CC=C(C=C3)F

> <PUBCHEM_OPENEYE_ISO_SMILES>
CSC1=CC=CC(=C1)NC(=O)C2CCCN(C2)S(=O)(=O)C3=CC=C(C=C3)F

> <PUBCHEM_TOTAL_CHARGE>
0

> <PUBCHEM_XLOGP3_AA>
3

$$$$
Written by BCL::WriteToMDL,6898433
MBcorina  10171218483D 1   1.00000     0.00000 
CORINA 3.49 0026  01.06.2011
 30 32  0  0  0  0  0  0  0  0999 V2000
   -0.0218    1.7541    0.0117 S   0  0  0  1  0  2  0  0  0  0  0  0
   -6.1627   -2.5217    0.0460 O   0  0  0  1  0  1  0  0  0  0  0  0
   -3.4669   -1.1384    0.0286 N   0  0  0  1  0  3  0  0  0  0  0  0
   -6.9571   -0.3998    0.0639 N   0  0  0  1  0  2  0  0  0  0  0  0
   -2.3374   -0.3095    0.0222 N   0  0  0  1  0  2  0  0  0  0  0  0
   -5.0464    0.8206    0.0531 C   0  0  0  1  0  3  0  0  0  0  0  0
   -4.6893   -0.6011    0.0426 C   0  0  0  1  0  3  0  0  0  0  0  0
   -6.4624    0.8667    0.0660 C   0  0  0  1  0  3  0  0  0  0  0  0
   -4.3035    2.0011    0.0525 C   0  0  0  1  0  3  0  0  0  0  0  0
   -6.0012   -1.3118    0.0507 C   0  0  0  1  0  3  0  0  0  0  0  0
   -7.0934    2.1115    0.0784 C   0  0  0  1  0  3  0  0  0  0  0  0
    1.3099   -0.4349   -0.0128 C   0  0  0  1  0  3  0  0  0  0  0  0
    0.0021   -0.0041    0.0020 C   0  0  0  1  0  3  0  0  0  0  0  0
   -4.9551    3.2189    0.0653 C   0  0  0  1  0  3  0  0  0  0  0  0
   -6.3402    3.2702    0.0780 C   0  0  0  1  0  3  0  0  0  0  0  0
    2.2164    0.5932   -0.0159 C   0  0  0  1  0  3  0  0  0  0  0  0
   -1.1345   -0.8382    0.0084 C   0  0  0  1  0  3  0  0  0  0  0  0
    1.7045   -1.8893   -0.0236 C   0  0  0  1  0  4  0  0  0  0  0  0
    1.6827    1.8248   -0.0042 C   0  0  0  1  0  3  0  0  0  0  0  0
   -3.2242    1.9632    0.0428 H   0  0  0  1  0  1  0  0  0  0  0  0
   -8.1718    2.1693    0.0880 H   0  0  0  1  0  1  0  0  0  0  0  0
   -3.3610   -2.1026    0.0227 H   0  0  0  1  0  1  0  0  0  0  0  0
   -4.3830    4.1350    0.0653 H   0  0  0  1  0  1  0  0  0  0  0  0
   -6.8376    4.2288    0.0873 H   0  0  0  1  0  1  0  0  0  0  0  0
    3.2831    0.4245   -0.0267 H   0  0  0  1  0  1  0  0  0  0  0  0
   -1.0166   -1.9117    0.0019 H   0  0  0  1  0  1  0  0  0  0  0  0
    1.7896   -2.2350   -1.0538 H   0  0  0  1  0  1  0  0  0  0  0  0
    2.6635   -2.0093    0.4804 H   0  0  0  1  0  1  0  0  0  0  0  0
    0.9458   -2.4755    0.4949 H   0  0  0  1  0  1  0  0  0  0  0  0
    2.2565    2.7398   -0.0051 H   0  0  0  1  0  1  0  0  0  0  0  0
  1 13  1  0  0  0  0
  1 19  1  0  0  0  0
  2 10  2  0  0  0  0
  3  5  1  0  0  0  0
  3  7  1  0  0  0  0
  3 22  1  0  0  0  0
  4  8  2  0  0  0  0
  4 10  1  0  0  0  0
  5 17  2  0  0  0  0
  6  7  2  0  0  0  0
  6  8  1  0  0  0  0
  6  9  1  0  0  0  0
  7 10  1  0  0  0  0
  8 11  1  0  0  0  0
  9 14  2  0  0  0  0
  9 20  1  0  0  0  0
 11 15  2  0  0  0  0
 11 21  1  0  0  0  0
 12 13  2  0  0  0  0
 12 16  1  0  0  0  0
 12 18  1  0  0  0  0
 13 17  1  0  0  0  0
 14 15  1  0  0  0  0
 14 23  1  0  0  0  0
 15 24  1  0  0  0  0
 16 19  2  0  0  0  0
 16 25  1  0  0  0  0
 17 26  1  0  0  0  0
 18 27  1  0  0  0  0
 18 28  1  0  0  0  0
 18 29  1  0  0  0  0
 19 30  1  0  0  0  0
M  END
> <Activity>
2.357

> <Mapped(file=504701.csv.activities,property=Cached(PUBCHEM_COMPOUND_CID))>
2.357

> <PUBCHEM_ATOM_DEF_STEREO_COUNT>
0

> <PUBCHEM_ATOM_UDEF_STEREO_COUNT>
0

> <PUBCHEM_BONDANNOTATIONS>
1  13  8
1  19  8
11  15  8
12  13  8
12  16  8
14  15  8
16  19  8
6  8  8
6  9  8
8  11  8
9  14  8

> <PUBCHEM_BOND_DEF_STEREO_COUNT>
1

> <PUBCHEM_BOND_UDEF_STEREO_COUNT>
0

> <PUBCHEM_CACTVS_COMPLEXITY>
557

> <PUBCHEM_CACTVS_HBOND_ACCEPTOR>
4

> <PUBCHEM_CACTVS_HBOND_DONOR>
1

> <PUBCHEM_CACTVS_ROTATABLE_BOND>
3

> <PUBCHEM_CACTVS_SUBSKEYS>
AAADccBzIABAAAAAAAAAAAAAAAAAASIAAAAgAAAAAAAAAEABgAAAHgQYAAAADAjF2ASyAYJiAAisAzVzVACTAIAgCBBYiBiwANgIYCKgERCAAAAgiAAoiQYAAAAKAAAAAAAAAAAAAAAAAAAAAAAAAAAAAA==

> <PUBCHEM_CACTVS_TAUTO_COUNT>
4

> <PUBCHEM_CACTVS_TPSA>
82.1

> <PUBCHEM_COMPONENT_COUNT>
1

> <PUBCHEM_COMPOUND_CANONICALIZED>
1

> <PUBCHEM_COMPOUND_CID>
6898433

> <PUBCHEM_COORDINATE_TYPE>
1
5
255

> <PUBCHEM_EXACT_MASS>
269.062283

> <PUBCHEM_HEAVY_ATOM_COUNT>
19

> <PUBCHEM_ISOTOPIC_ATOM_COUNT>
0

> <PUBCHEM_IUPAC_CAS_NAME>
3-[(2E)-2-[(3-methyl-2-thiophenyl)methylidene]hydrazinyl]-2-indolone

> <PUBCHEM_IUPAC_INCHI>
InChI=1S/C14H11N3OS/c1-9-6-7-19-12(9)8-15-17-13-10-4-2-3-5-11(10)16-14(13)18/h2-8H,1H3,(H,16,17,18)/b15-8+

> <PUBCHEM_IUPAC_INCHIKEY>
WJDPJPVBZDKEQV-OVCLIPMQSA-N

> <PUBCHEM_IUPAC_NAME>
3-[(2E)-2-[(3-methylthiophen-2-yl)methylidene]hydrazinyl]indol-2-one

> <PUBCHEM_IUPAC_OPENEYE_NAME>
3-[(2E)-2-[(3-methyl-2-thienyl)methylene]hydrazino]indol-2-one

> <PUBCHEM_IUPAC_SYSTEMATIC_NAME>
3-[(2E)-2-[(3-methylthiophen-2-yl)methylidene]hydrazinyl]indol-2-one

> <PUBCHEM_IUPAC_TRADITIONAL_NAME>
3-[(N'E)-N'-[(3-methyl-2-thienyl)methylene]hydrazino]indol-2-one

> <PUBCHEM_MOLECULAR_FORMULA>
C14H11N3OS

> <PUBCHEM_MOLECULAR_WEIGHT>
269.32164

> <PUBCHEM_MONOISOTOPIC_WEIGHT>
269.062283

> <PUBCHEM_OPENEYE_CAN_SMILES>
CC1=C(SC=C1)C=NNC2=C3C=CC=CC3=NC2=O

> <PUBCHEM_OPENEYE_ISO_SMILES>
CC1=C(SC=C1)/C=N/NC2=C3C=CC=CC3=NC2=O

> <PUBCHEM_TOTAL_CHARGE>
0

> <PUBCHEM_XLOGP3_AA>
3.1

$$$$
Largest component of Written by BCL::WriteToMDL,16195070
MBcorina  10171218483D 1   1.00000     0.00000 
CORINA 3.49 0026  01.06.2011
 71 74  0  0  0  0  0  0  0  0999 V2000
    8.3419   10.1090   14.8675 O   0  0  0  1  0  2  0  0  0  0  0  0
   10.5515   10.1033   14.8381 O   0  0  0  1  0  1  0  0  0  0  0  0
   10.6873   14.0502   11.8951 O   0  0  0  1  0  2  0  0  0  0  0  0
    8.7390   14.2494    6.7685 O   0  0  0  1  0  2  0  0  0  0  0  0
   10.9719   12.6903   14.8548 N   0  0  0  1  0  3  0  0  0  0  0  0
   12.9213   13.3181   14.1024 N   0  3  0  1  0  3  0  0  0  0  0  0
    7.1405    8.1169   15.5877 C   0  0  0  1  0  4  0  0  0  0  0  0
    8.3700    8.6573   14.8547 C   0  0  0  1  0  4  0  0  0  0  0  0
    7.1702    6.5872   15.5741 C   0  0  0  1  0  4  0  0  0  0  0  0
    8.3903    6.6302   13.3942 C   0  0  0  1  0  4  0  0  0  0  0  0
    8.3607    8.1598   13.4078 C   0  0  0  1  0  4  0  0  0  0  0  0
    7.1609    6.0898   14.1273 C   0  0  0  1  0  4  0  0  0  0  0  0
    7.1498    8.6143   17.0345 C   0  0  0  1  0  4  0  0  0  0  0  0
    8.3810    6.1327   11.9474 C   0  0  0  1  0  4  0  0  0  0  0  0
    5.8547    8.1881   17.7287 C   0  0  0  1  0  4  0  0  0  0  0  0
    8.3465    8.0118   17.7733 C   0  0  0  1  0  4  0  0  0  0  0  0
    9.5257   10.7415   14.8573 C   0  0  0  1  0  3  0  0  0  0  0  0
    9.5754   12.2476   14.8696 C   0  0  0  1  0  4  0  0  0  0  0  0
   11.7259   12.9433   13.7512 C   0  0  0  1  0  3  0  0  0  0  0  0
   11.7648   12.9337   15.9585 C   0  0  0  1  0  3  0  0  0  0  0  0
   13.0152   13.3340   15.4570 C   0  0  0  1  0  3  0  0  0  0  0  0
   11.2465   12.8087   12.3288 C   0  0  0  1  0  4  0  0  0  0  0  0
   11.5624   12.8594   17.3295 C   0  0  0  1  0  3  0  0  0  0  0  0
   14.0434   13.6512   16.3479 C   0  0  0  1  0  3  0  0  0  0  0  0
   14.0008   13.6721   13.1774 C   0  0  0  1  0  4  0  0  0  0  0  0
   12.5912   13.1794   18.1902 C   0  0  0  1  0  3  0  0  0  0  0  0
   13.8268   13.5698   17.6945 C   0  0  0  1  0  3  0  0  0  0  0  0
   10.2046   14.0996   10.6248 C   0  0  0  1  0  3  0  0  0  0  0  0
    9.6481   15.2737   10.1395 C   0  0  0  1  0  3  0  0  0  0  0  0
   10.2738   12.9775    9.8125 C   0  0  0  1  0  3  0  0  0  0  0  0
    9.1577   15.3238    8.8492 C   0  0  0  1  0  3  0  0  0  0  0  0
    9.7835   13.0276    8.5221 C   0  0  0  1  0  3  0  0  0  0  0  0
    9.2222   14.2002    8.0386 C   0  0  0  1  0  3  0  0  0  0  0  0
    8.8380   13.0552    5.9900 C   0  0  0  1  0  4  0  0  0  0  0  0
    6.2369    8.4672   15.0888 H   0  0  0  1  0  1  0  0  0  0  0  0
    9.2736    8.3069   15.3535 H   0  0  0  1  0  1  0  0  0  0  0  0
    8.0737    6.2369   16.0730 H   0  0  0  1  0  1  0  0  0  0  0  0
    6.2943    6.2022   16.0963 H   0  0  0  1  0  1  0  0  0  0  0  0
    9.2939    6.2798   13.8931 H   0  0  0  1  0  1  0  0  0  0  0  0
    7.4571    8.5102   12.9089 H   0  0  0  1  0  1  0  0  0  0  0  0
    9.2366    8.5448   12.8856 H   0  0  0  1  0  1  0  0  0  0  0  0
    7.1820    5.0000   14.1176 H   0  0  0  1  0  1  0  0  0  0  0  0
    6.2573    6.4401   13.6284 H   0  0  0  1  0  1  0  0  0  0  0  0
    7.2266    9.7016   17.0444 H   0  0  0  1  0  1  0  0  0  0  0  0
    9.2569    6.5177   11.4252 H   0  0  0  1  0  1  0  0  0  0  0  0
    8.4021    5.0430   11.9377 H   0  0  0  1  0  1  0  0  0  0  0  0
    7.4774    6.4831   11.4485 H   0  0  0  1  0  1  0  0  0  0  0  0
    5.8192    8.6203   18.7287 H   0  0  0  1  0  1  0  0  0  0  0  0
    5.0000    8.5394   17.1505 H   0  0  0  1  0  1  0  0  0  0  0  0
    5.8221    7.1010   17.8013 H   0  0  0  1  0  1  0  0  0  0  0  0
    9.2692    8.3154   17.2788 H   0  0  0  1  0  1  0  0  0  0  0  0
    8.3531    8.3662   18.8040 H   0  0  0  1  0  1  0  0  0  0  0  0
    8.2698    6.9246   17.7634 H   0  0  0  1  0  1  0  0  0  0  0  0
    9.0857   12.6200   15.7694 H   0  0  0  1  0  1  0  0  0  0  0  0
    9.0621   12.6353   13.9896 H   0  0  0  1  0  1  0  0  0  0  0  0
   10.4868   12.0290   12.2737 H   0  0  0  1  0  1  0  0  0  0  0  0
   12.0861   12.5441   11.6859 H   0  0  0  1  0  1  0  0  0  0  0  0
   10.6035   12.5527   17.7206 H   0  0  0  1  0  1  0  0  0  0  0  0
   15.0080   13.9599   15.9728 H   0  0  0  1  0  1  0  0  0  0  0  0
   13.9578   14.7394   12.9603 H   0  0  0  1  0  1  0  0  0  0  0  0
   14.9620   13.4322   13.6319 H   0  0  0  1  0  1  0  0  0  0  0  0
   13.8856   13.1081   12.2518 H   0  0  0  1  0  1  0  0  0  0  0  0
   12.4352   13.1221   19.2573 H   0  0  0  1  0  1  0  0  0  0  0  0
   14.6244   13.8154   18.3800 H   0  0  0  1  0  1  0  0  0  0  0  0
    9.5979   16.1486   10.7707 H   0  0  0  1  0  1  0  0  0  0  0  0
   10.7115   12.0646   10.1888 H   0  0  0  1  0  1  0  0  0  0  0  0
    8.7238   16.2379    8.4716 H   0  0  0  1  0  1  0  0  0  0  0  0
    9.8377   12.1540    7.8895 H   0  0  0  1  0  1  0  0  0  0  0  0
    9.8856   12.7699    5.8940 H   0  0  0  1  0  1  0  0  0  0  0  0
    8.2869   12.2539    6.4821 H   0  0  0  1  0  1  0  0  0  0  0  0
    8.4171   13.2310    5.0000 H   0  0  0  1  0  1  0  0  0  0  0  0
  1  8  1  0  0  0  0
  1 17  1  0  0  0  0
  2 17  2  0  0  0  0
  3 22  1  0  0  0  0
  3 28  1  0  0  0  0
  4 33  1  0  0  0  0
  4 34  1  0  0  0  0
  5 18  1  0  0  0  0
  5 19  1  0  0  0  0
  5 20  1  0  0  0  0
  6 19  2  0  0  0  0
  6 21  1  0  0  0  0
  6 25  1  0  0  0  0
  7  8  1  0  0  0  0
  7  9  1  0  0  0  0
  7 13  1  0  0  0  0
  7 35  1  0  0  0  0
  8 11  1  0  0  0  0
  8 36  1  0  0  0  0
  9 12  1  0  0  0  0
  9 37  1  0  0  0  0
  9 38  1  0  0  0  0
 10 11  1  0  0  0  0
 10 12  1  0  0  0  0
 10 14  1  0  0  0  0
 10 39  1  0  0  0  0
 11 40  1  0  0  0  0
 11 41  1  0  0  0  0
 12 42  1  0  0  0  0
 12 43  1  0  0  0  0
 13 15  1  0  0  0  0
 13 16  1  0  0  0  0
 13 44  1  0  0  0  0
 14 45  1  0  0  0  0
 14 46  1  0  0  0  0
 14 47  1  0  0  0  0
 15 48  1  0  0  0  0
 15 49  1  0  0  0  0
 15 50  1  0  0  0  0
 16 51  1  0  0  0  0
 16 52  1  0  0  0  0
 16 53  1  0  0  0  0
 17 18  1  0  0  0  0
 18 54  1  0  0  0  0
 18 55  1  0  0  0  0
 19 22  1  0  0  0  0
 20 21  1  0  0  0  0
 20 23  2  0  0  0  0
 21 24  2  0  0  0  0
 22 56  1  0  0  0  0
 22 57  1  0  0  0  0
 23 26  1  0  0  0  0
 23 58  1  0  0  0  0
 24 27  1  0  0  0  0
 24 59  1  0  0  0  0
 25 60  1  0  0  0  0
 25 61  1  0  0  0  0
 25 62  1  0  0  0  0
 26 27  2  0  0  0  0
 26 63  1  0  0  0  0
 27 64  1  0  0  0  0
 28 29  2  0  0  0  0
 28 30  1  0  0  0  0
 29 31  1  0  0  0  0
 29 65  1  0  0  0  0
 30 32  2  0  0  0  0
 30 66  1  0  0  0  0
 31 33  2  0  0  0  0
 31 67  1  0  0  0  0
 32 33  1  0  0  0  0
 32 68  1  0  0  0  0
 34 69  1  0  0  0  0
 34 70  1  0  0  0  0
 34 71  1  0  0  0  0
M  END
> <Activity>
8.686

> <Mapped(file=504699.csv.activities,property=Cached(PUBCHEM_COMPOUND_CID))>
8.686

> <PUBCHEM_ATOM_DEF_STEREO_COUNT>
0

> <PUBCHEM_ATOM_UDEF_STEREO_COUNT>
3

> <PUBCHEM_BONDANNOTATIONS>
11  15  3
9  2  3
21  22  8
21  24  8
22  25  8
24  27  8
25  28  8
27  28  8
29  30  8
29  31  8
30  32  8
31  33  8
32  34  8
33  34  8
6  20  8
6  21  8
7  20  8
7  22  8
8  14  3

> <PUBCHEM_BOND_DEF_STEREO_COUNT>
0

> <PUBCHEM_BOND_UDEF_STEREO_COUNT>
0

> <PUBCHEM_CACTVS_COMPLEXITY>
650

> <PUBCHEM_CACTVS_HBOND_ACCEPTOR>
5

> <PUBCHEM_CACTVS_HBOND_DONOR>
0

> <PUBCHEM_CACTVS_ROTATABLE_BOND>
9

> <PUBCHEM_CACTVS_SUBSKEYS>
AAADcfB7OAAEAAAAAAAAAAAAAAAAAWAAAAAwYMAAAAAAAFgB9AAAHgAAAAAADRzhlwYz3rcMFACoASbybASCiC0hMqAJ2CC+fJiObqLEubuXOCjswBPY6CfQwPAOgQAAAAAAACCCAAIAABAAQAAAAAAAAA==

> <PUBCHEM_CACTVS_TAUTO_COUNT>
1

> <PUBCHEM_CACTVS_TPSA>
53.6

> <PUBCHEM_COMPONENT_COUNT>
2

> <PUBCHEM_COMPOUND_CANONICALIZED>
1

> <PUBCHEM_COMPOUND_CID>
16195070

> <PUBCHEM_COORDINATE_TYPE>
1
5
255

> <PUBCHEM_EXACT_MASS>
500.244185

> <PUBCHEM_HEAVY_ATOM_COUNT>
35

> <PUBCHEM_ISOTOPIC_ATOM_COUNT>
0

> <PUBCHEM_IUPAC_CAS_NAME>
2-[2-[(4-methoxyphenoxy)methyl]-3-methyl-1-benzimidazol-3-iumyl]acetic acid (5-methyl-2-propan-2-ylcyclohexyl) ester chloride

> <PUBCHEM_IUPAC_INCHI>
InChI=1S/C28H37N2O4.ClH/c1-19(2)23-15-10-20(3)16-26(23)34-28(31)17-30-25-9-7-6-8-24(25)29(4)27(30)18-33-22-13-11-21(32-5)12-14-22;/h6-9,11-14,19-20,23,26H,10,15-18H2,1-5H3;1H/q+1;/p-1

> <PUBCHEM_IUPAC_INCHIKEY>
XBTSSWGMHQSDTR-UHFFFAOYSA-M

> <PUBCHEM_IUPAC_NAME>
(5-methyl-2-propan-2-ylcyclohexyl) 2-[2-[(4-methoxyphenoxy)methyl]-3-methylbenzimidazol-3-ium-1-yl]acetate chloride

> <PUBCHEM_IUPAC_OPENEYE_NAME>
(2-isopropyl-5-methyl-cyclohexyl) 2-[2-[(4-methoxyphenoxy)methyl]-3-methyl-benzimidazol-3-ium-1-yl]acetate chloride

> <PUBCHEM_IUPAC_SYSTEMATIC_NAME>
(5-methyl-2-propan-2-yl-cyclohexyl) 2-[2-[(4-methoxyphenoxy)methyl]-3-methyl-benzimidazol-3-ium-1-yl]ethanoate chloride

> <PUBCHEM_IUPAC_TRADITIONAL_NAME>
2-[2-[(4-methoxyphenoxy)methyl]-3-methyl-benzimidazol-3-ium-1-yl]acetic acid (2-isopropyl-5-methyl-cyclohexyl) ester chloride

> <PUBCHEM_MOLECULAR_FORMULA>
C28H37ClN2O4

> <PUBCHEM_MOLECULAR_WEIGHT>
501.05738

> <PUBCHEM_MONOISOTOPIC_WEIGHT>
500.244185

> <PUBCHEM_OPENEYE_CAN_SMILES>
CC1CCC(C(C1)OC(=O)CN2C3=CC=CC=C3[N+](=C2COC4=CC=C(C=C4)OC)C)C(C)C.[Cl-]

> <PUBCHEM_OPENEYE_ISO_SMILES>
CC1CCC(C(C1)OC(=O)CN2C3=CC=CC=C3[N+](=C2COC4=CC=C(C=C4)OC)C)C(C)C.[Cl-]

> <PUBCHEM_TOTAL_CHARGE>
0

$$$$
Written by BCL::WriteToMDL,24817071
MBcorina  10171218483D 1   1.00000     0.00000 
CORINA 3.49 0026  01.06.2011
 49 50  0  0  0  0  0  0  0  0999 V2000
   -0.1499    1.5625    0.0110 O   0  0  0  1  0  2  0  0  0  0  0  0
   -0.1543   -2.1955   -2.3151 O   0  0  0  1  0  2  0  0  0  0  0  0
   -4.0262   -0.6443    2.2894 O   0  0  0  1  0  1  0  0  0  0  0  0
   -1.3374   -0.5486   -3.2269 O   0  0  0  1  0  1  0  0  0  0  0  0
    2.0676    1.6640   -0.1002 O   0  0  0  1  0  1  0  0  0  0  0  0
    4.4579    8.6844    0.1051 O   0  0  0  1  0  2  0  0  0  0  0  0
   -4.0377   -1.5023    0.2541 N   0  0  0  1  0  3  0  0  0  0  0  0
   -2.1942   -0.3216    1.1126 N   0  0  0  1  0  3  0  0  0  0  0  0
   -3.3066   -1.7055   -1.0080 C   0  0  0  1  0  4  0  0  0  0  0  0
   -1.9113   -1.1211   -1.0948 C   0  0  0  1  0  3  0  0  0  0  0  0
   -1.4389   -0.4590   -0.0168 C   0  0  0  1  0  3  0  0  0  0  0  0
   -3.2029   -3.2118   -1.2557 C   0  0  0  1  0  4  0  0  0  0  0  0
   -3.4311   -0.8175    1.2437 C   0  0  0  1  0  3  0  0  0  0  0  0
   -0.0561    0.1384   -0.0610 C   0  0  0  1  0  4  0  0  0  0  0  0
   -1.1299   -1.2646   -2.2652 C   0  0  0  1  0  3  0  0  0  0  0  0
    0.5955   -2.2851   -3.5284 C   0  0  0  1  0  4  0  0  0  0  0  0
    1.0078    2.2547   -0.0170 C   0  0  0  1  0  3  0  0  0  0  0  0
    1.6479   -3.3879   -3.3973 C   0  0  0  1  0  4  0  0  0  0  0  0
    0.9882    3.7153    0.0527 C   0  0  0  1  0  3  0  0  0  0  0  0
    2.1262    5.8775    0.0950 C   0  0  0  1  0  3  0  0  0  0  0  0
    2.1458    4.4075    0.0248 C   0  0  0  1  0  3  0  0  0  0  0  0
    3.3236    6.5976    0.0663 C   0  0  0  1  0  3  0  0  0  0  0  0
    0.9085    6.5603    0.1849 C   0  0  0  1  0  3  0  0  0  0  0  0
    3.2960    7.9800    0.1323 C   0  0  0  1  0  3  0  0  0  0  0  0
    0.8951    7.9376    0.2500 C   0  0  0  1  0  3  0  0  0  0  0  0
    2.0821    8.6477    0.2267 C   0  0  0  1  0  3  0  0  0  0  0  0
    4.3555   10.1079    0.1769 C   0  0  0  1  0  4  0  0  0  0  0  0
   -3.9018   -1.2763   -1.8140 H   0  0  0  1  0  1  0  0  0  0  0  0
   -4.9362   -1.8493    0.3689 H   0  0  0  1  0  1  0  0  0  0  0  0
   -4.2036   -3.6380   -1.3271 H   0  0  0  1  0  1  0  0  0  0  0  0
   -2.6646   -3.3907   -2.1864 H   0  0  0  1  0  1  0  0  0  0  0  0
   -2.6667   -3.6797   -0.4301 H   0  0  0  1  0  1  0  0  0  0  0  0
   -1.8132    0.1622    1.8621 H   0  0  0  1  0  1  0  0  0  0  0  0
    0.4334   -0.1470   -0.9922 H   0  0  0  1  0  1  0  0  0  0  0  0
    0.5262   -0.2305    0.7834 H   0  0  0  1  0  1  0  0  0  0  0  0
   -0.0762   -2.5201   -4.3540 H   0  0  0  1  0  1  0  0  0  0  0  0
    1.0893   -1.3327   -3.7215 H   0  0  0  1  0  1  0  0  0  0  0  0
    2.2198   -3.4562   -4.3227 H   0  0  0  1  0  1  0  0  0  0  0  0
    2.3196   -3.1529   -2.5716 H   0  0  0  1  0  1  0  0  0  0  0  0
    1.1541   -4.3403   -3.2042 H   0  0  0  1  0  1  0  0  0  0  0  0
    0.0470    4.2398    0.1266 H   0  0  0  1  0  1  0  0  0  0  0  0
    3.0870    3.8829   -0.0491 H   0  0  0  1  0  1  0  0  0  0  0  0
    4.2672    6.0774   -0.0068 H   0  0  0  1  0  1  0  0  0  0  0  0
   -0.0201    6.0092    0.2030 H   0  0  0  1  0  1  0  0  0  0  0  0
   -0.0455    8.4638    0.3194 H   0  0  0  1  0  1  0  0  0  0  0  0
    2.0643    9.7263    0.2780 H   0  0  0  1  0  1  0  0  0  0  0  0
    3.7717   10.4732   -0.6680 H   0  0  0  1  0  1  0  0  0  0  0  0
    3.8635   10.3903    1.1077 H   0  0  0  1  0  1  0  0  0  0  0  0
    5.3531   10.5460    0.1458 H   0  0  0  1  0  1  0  0  0  0  0  0
  1 14  1  0  0  0  0
  1 17  1  0  0  0  0
  2 15  1  0  0  0  0
  2 16  1  0  0  0  0
  3 13  2  0  0  0  0
  4 15  2  0  0  0  0
  5 17  2  0  0  0  0
  6 24  1  0  0  0  0
  6 27  1  0  0  0  0
  7  9  1  0  0  0  0
  7 13  1  0  0  0  0
  7 29  1  0  0  0  0
  8 11  1  0  0  0  0
  8 13  1  0  0  0  0
  8 33  1  0  0  0  0
  9 10  1  0  0  0  0
  9 12  1  0  0  0  0
  9 28  1  0  0  0  0
 10 11  2  0  0  0  0
 10 15  1  0  0  0  0
 11 14  1  0  0  0  0
 12 30  1  0  0  0  0
 12 31  1  0  0  0  0
 12 32  1  0  0  0  0
 14 34  1  0  0  0  0
 14 35  1  0  0  0  0
 16 18  1  0  0  0  0
 16 36  1  0  0  0  0
 16 37  1  0  0  0  0
 17 19  1  0  0  0  0
 18 38  1  0  0  0  0
 18 39  1  0  0  0  0
 18 40  1  0  0  0  0
 19 21  2  0  0  0  0
 19 41  1  0  0  0  0
 20 21  1  0  0  0  0
 20 22  2  0  0  0  0
 20 23  1  0  0  0  0
 21 42  1  0  0  0  0
 22 24  1  0  0  0  0
 22 43  1  0  0  0  0
 23 25  2  0  0  0  0
 23 44  1  0  0  0  0
 24 26  2  0  0  0  0
 25 26  1  0  0  0  0
 25 45  1  0  0  0  0
 26 46  1  0  0  0  0
 27 47  1  0  0  0  0
 27 48  1  0  0  0  0
 27 49  1  0  0  0  0
M  END
> <Activity>
8.331

> <Mapped(file=504701.csv.activities,property=Cached(PUBCHEM_COMPOUND_CID))>
8.331

> <PUBCHEM_ATOM_DEF_STEREO_COUNT>
0

> <PUBCHEM_ATOM_UDEF_STEREO_COUNT>
1

> <PUBCHEM_BONDANNOTATIONS>
20  22  8
20  23  8
22  24  8
23  25  8
24  26  8
25  26  8
9  12  3

> <PUBCHEM_BOND_DEF_STEREO_COUNT>
1

> <PUBCHEM_BOND_UDEF_STEREO_COUNT>
0

> <PUBCHEM_CACTVS_COMPLEXITY>
628

> <PUBCHEM_CACTVS_HBOND_ACCEPTOR>
6

> <PUBCHEM_CACTVS_HBOND_DONOR>
2

> <PUBCHEM_CACTVS_ROTATABLE_BOND>
9

> <PUBCHEM_CACTVS_SUBSKEYS>
AAADceB7OAAAAAAAAAAAAAAAAAAAAAAAAAAwQAAAAAAAAAABAAAAHgAQAAAADCzhmAYzDoLABACIAiTSWACCCAAgIAAIiIEOCMiOJjqEMRqHMCAu1hMYqceAwBAOAAABAAAAAAAAAAIAAAAAAAAAAAAAAA==

> <PUBCHEM_CACTVS_TAUTO_COUNT>
7

> <PUBCHEM_CACTVS_TPSA>
103

> <PUBCHEM_COMPONENT_COUNT>
1

> <PUBCHEM_COMPOUND_CANONICALIZED>
1

> <PUBCHEM_COMPOUND_CID>
24817071

> <PUBCHEM_COORDINATE_TYPE>
1
5
255

> <PUBCHEM_EXACT_MASS>
374.147786

> <PUBCHEM_HEAVY_ATOM_COUNT>
27

> <PUBCHEM_ISOTOPIC_ATOM_COUNT>
0

> <PUBCHEM_IUPAC_CAS_NAME>
6-[[(E)-3-(3-methoxyphenyl)-1-oxoprop-2-enoxy]methyl]-4-methyl-2-oxo-3,4-dihydro-1H-pyrimidine-5-carboxylic acid ethyl ester

> <PUBCHEM_IUPAC_INCHI>
InChI=1S/C19H22N2O6/c1-4-26-18(23)17-12(2)20-19(24)21-15(17)11-27-16(22)9-8-13-6-5-7-14(10-13)25-3/h5-10,12H,4,11H2,1-3H3,(H2,20,21,24)/b9-8+

> <PUBCHEM_IUPAC_INCHIKEY>
DOQBMWJFKCZNSN-CMDGGOBGSA-N

> <PUBCHEM_IUPAC_NAME>
ethyl 6-[[(E)-3-(3-methoxyphenyl)prop-2-enoyl]oxymethyl]-4-methyl-2-oxo-3,4-dihydro-1H-pyrimidine-5-carboxylate

> <PUBCHEM_IUPAC_OPENEYE_NAME>
ethyl 6-[[(E)-3-(3-methoxyphenyl)prop-2-enoyl]oxymethyl]-4-methyl-2-oxo-3,4-dihydro-1H-pyrimidine-5-carboxylate

> <PUBCHEM_IUPAC_SYSTEMATIC_NAME>
ethyl 6-[[(E)-3-(3-methoxyphenyl)prop-2-enoyl]oxymethyl]-4-methyl-2-oxidanylidene-3,4-dihydro-1H-pyrimidine-5-carboxylate

> <PUBCHEM_IUPAC_TRADITIONAL_NAME>
2-keto-6-[[(E)-3-(3-methoxyphenyl)acryloyl]oxymethyl]-4-methyl-3,4-dihydro-1H-pyrimidine-5-carboxylic acid ethyl ester

> <PUBCHEM_MOLECULAR_FORMULA>
C19H22N2O6

> <PUBCHEM_MOLECULAR_WEIGHT>
374.38778

> <PUBCHEM_MONOISOTOPIC_WEIGHT>
374.147786

> <PUBCHEM_OPENEYE_CAN_SMILES>
CCOC(=O)C1=C(NC(=O)NC1C)COC(=O)C=CC2=CC(=CC=C2)OC

> <PUBCHEM_OPENEYE_ISO_SMILES>
CCOC(=O)C1=C(NC(=O)NC1C)COC(=O)/C=C/C2=CC(=CC=C2)OC

> <PUBCHEM_TOTAL_CHARGE>
0

> <PUBCHEM_XLOGP3_AA>
1.5

$$$$
Written by BCL::WriteToMDL,9600290
MBcorina  10171218483D 1   1.00000     0.00000 
CORINA 3.49 0026  01.06.2011
 36 37  0  0  0  0  0  0  0  0999 V2000
   -0.0209    1.6900    0.0113 S   0  0  0  1  0  2  0  0  0  0  0  0
    1.6782   -2.0984   -0.0247 S   0  0  0  1  0  2  0  0  0  0  0  0
    2.3061   10.2924    0.0330 O   0  0  0  1  0  2  0  0  0  0  0  0
   -0.4448   10.2956    0.0475 O   0  0  0  1  0  2  0  0  0  0  0  0
    2.3822    3.0915   -0.0034 N   0  0  0  1  0  3  0  0  0  0  0  0
    1.6879    4.3083    0.0100 N   0  0  0  1  0  2  0  0  0  0  0  0
    0.0021   -0.0041    0.0020 N   0  0  0  1  0  2  0  0  0  0  0  0
    4.7386    0.1316   -0.0433 N   0  0  0  1  0  1  0  0  0  0  0  0
    1.6124    6.7099    0.0246 C   0  0  0  1  0  3  0  0  0  0  0  0
    1.6251    9.1153    0.0325 C   0  0  0  1  0  3  0  0  0  0  0  0
    0.2321    9.1166    0.0396 C   0  0  0  1  0  3  0  0  0  0  0  0
    2.3154    7.9176    0.0250 C   0  0  0  1  0  3  0  0  0  0  0  0
    0.2151    6.7191    0.0317 C   0  0  0  1  0  3  0  0  0  0  0  0
   -0.4663    7.9180    0.0392 C   0  0  0  1  0  3  0  0  0  0  0  0
    2.3429    5.4297    0.0104 C   0  0  0  1  0  3  0  0  0  0  0  0
    1.6860    1.8996   -0.0038 C   0  0  0  1  0  3  0  0  0  0  0  0
    2.2165    0.6140   -0.0158 C   0  0  0  1  0  3  0  0  0  0  0  0
    1.2431   -0.3910   -0.0119 C   0  0  0  1  0  3  0  0  0  0  0  0
    3.7331   10.2164    0.0255 C   0  0  0  1  0  4  0  0  0  0  0  0
   -1.8720   10.2243    0.0545 C   0  0  0  1  0  4  0  0  0  0  0  0
    3.6229    0.3450   -0.0311 C   0  0  0  1  0  2  0  0  0  0  0  0
    0.0662   -2.9304   -0.0140 C   0  0  0  1  0  4  0  0  0  0  0  0
    3.3954    7.9152    0.0199 H   0  0  0  1  0  1  0  0  0  0  0  0
   -0.3311    5.7874    0.0310 H   0  0  0  1  0  1  0  0  0  0  0  0
   -1.5462    7.9237    0.0451 H   0  0  0  1  0  1  0  0  0  0  0  0
    3.4229    5.4243    0.0004 H   0  0  0  1  0  1  0  0  0  0  0  0
    3.3522    3.0867   -0.0124 H   0  0  0  1  0  1  0  0  0  0  0  0
    4.1506   11.2233    0.0267 H   0  0  0  1  0  1  0  0  0  0  0  0
    4.0731    9.6810    0.9120 H   0  0  0  1  0  1  0  0  0  0  0  0
    4.0640    9.6870   -0.8680 H   0  0  0  1  0  1  0  0  0  0  0  0
   -2.2861   11.2326    0.0603 H   0  0  0  1  0  1  0  0  0  0  0  0
   -2.2137    9.6963   -0.8358 H   0  0  0  1  0  1  0  0  0  0  0  0
   -2.2047    9.6897    0.9442 H   0  0  0  1  0  1  0  0  0  0  0  0
    0.2147   -4.0102   -0.0209 H   0  0  0  1  0  1  0  0  0  0  0  0
   -0.4840   -2.6450    0.8826 H   0  0  0  1  0  1  0  0  0  0  0  0
   -0.5005   -2.6359   -0.8973 H   0  0  0  1  0  1  0  0  0  0  0  0
  1  7  1  0  0  0  0
  1 16  1  0  0  0  0
  2 18  1  0  0  0  0
  2 22  1  0  0  0  0
  3 10  1  0  0  0  0
  3 19  1  0  0  0  0
  4 11  1  0  0  0  0
  4 20  1  0  0  0  0
  5  6  1  0  0  0  0
  5 16  1  0  0  0  0
  5 27  1  0  0  0  0
  6 15  2  0  0  0  0
  7 18  2  0  0  0  0
  8 21  3  0  0  0  0
  9 12  2  0  0  0  0
  9 13  1  0  0  0  0
  9 15  1  0  0  0  0
 10 11  2  0  0  0  0
 10 12  1  0  0  0  0
 11 14  1  0  0  0  0
 12 23  1  0  0  0  0
 13 14  2  0  0  0  0
 13 24  1  0  0  0  0
 14 25  1  0  0  0  0
 15 26  1  0  0  0  0
 16 17  2  0  0  0  0
 17 18  1  0  0  0  0
 17 21  1  0  0  0  0
 19 28  1  0  0  0  0
 19 29  1  0  0  0  0
 19 30  1  0  0  0  0
 20 31  1  0  0  0  0
 20 32  1  0  0  0  0
 20 33  1  0  0  0  0
 22 34  1  0  0  0  0
 22 35  1  0  0  0  0
 22 36  1  0  0  0  0
M  END
> <Activity>
1.929

> <Mapped(file=504701.csv.activities,property=Cached(PUBCHEM_COMPOUND_CID))>
1.929

> <PUBCHEM_ATOM_DEF_STEREO_COUNT>
0

> <PUBCHEM_ATOM_UDEF_STEREO_COUNT>
0

> <PUBCHEM_BONDANNOTATIONS>
1  16  8
1  7  8
10  11  8
10  12  8
11  14  8
13  14  8
16  17  8
17  18  8
7  18  8
9  12  8
9  13  8

> <PUBCHEM_BOND_DEF_STEREO_COUNT>
1

> <PUBCHEM_BOND_UDEF_STEREO_COUNT>
0

> <PUBCHEM_CACTVS_COMPLEXITY>
428

> <PUBCHEM_CACTVS_HBOND_ACCEPTOR>
7

> <PUBCHEM_CACTVS_HBOND_DONOR>
1

> <PUBCHEM_CACTVS_ROTATABLE_BOND>
6

> <PUBCHEM_CACTVS_SUBSKEYS>
AAADccBzsABgAAAAAAAAAAAAAAAAAWAAAAAwAAAAAAAAAAABwAAAHgQYQAAADATB2gayh5BiBAi0BjBjQACzDBBgKBEYmDAmzJgNpqKkcVqANCYkyBEKqAeAwBAOIAABAAAAQABAAAIAAACAAAAAAAAAAA==

> <PUBCHEM_CACTVS_TAUTO_COUNT>
3

> <PUBCHEM_CACTVS_TPSA>
133

> <PUBCHEM_COMPONENT_COUNT>
1

> <PUBCHEM_COMPOUND_CANONICALIZED>
1

> <PUBCHEM_COMPOUND_CID>
9600290

> <PUBCHEM_COORDINATE_TYPE>
1
5
255

> <PUBCHEM_EXACT_MASS>
334.055818

> <PUBCHEM_HEAVY_ATOM_COUNT>
22

> <PUBCHEM_ISOTOPIC_ATOM_COUNT>
0

> <PUBCHEM_IUPAC_CAS_NAME>
5-[(2E)-2-[(3,4-dimethoxyphenyl)methylidene]hydrazinyl]-3-(methylthio)-4-isothiazolecarbonitrile

> <PUBCHEM_IUPAC_INCHI>
InChI=1S/C14H14N4O2S2/c1-19-11-5-4-9(6-12(11)20-2)8-16-17-13-10(7-15)14(21-3)18-22-13/h4-6,8,17H,1-3H3/b16-8+

> <PUBCHEM_IUPAC_INCHIKEY>
ZBKLKXXWAJJABZ-LZYBPNLTSA-N

> <PUBCHEM_IUPAC_NAME>
5-[(2E)-2-[(3,4-dimethoxyphenyl)methylidene]hydrazinyl]-3-methylsulfanyl-1,2-thiazole-4-carbonitrile

> <PUBCHEM_IUPAC_OPENEYE_NAME>
5-[(2E)-2-[(3,4-dimethoxyphenyl)methylene]hydrazino]-3-methylsulfanyl-isothiazole-4-carbonitrile

> <PUBCHEM_IUPAC_SYSTEMATIC_NAME>
5-[(2E)-2-[(3,4-dimethoxyphenyl)methylidene]hydrazinyl]-3-methylsulfanyl-1,2-thiazole-4-carbonitrile

> <PUBCHEM_IUPAC_TRADITIONAL_NAME>
3-(methylthio)-5-[(N'E)-N'-veratrylidenehydrazino]isothiazole-4-carbonitrile

> <PUBCHEM_MOLECULAR_FORMULA>
C14H14N4O2S2

> <PUBCHEM_MOLECULAR_WEIGHT>
334.41656

> <PUBCHEM_MONOISOTOPIC_WEIGHT>
334.055818

> <PUBCHEM_OPENEYE_CAN_SMILES>
COC1=C(C=C(C=C1)C=NNC2=C(C(=NS2)SC)C#N)OC

> <PUBCHEM_OPENEYE_ISO_SMILES>
COC1=C(C=C(C=C1)/C=N/NC2=C(C(=NS2)SC)C#N)OC

> <PUBCHEM_TOTAL_CHARGE>
0

> <PUBCHEM_XLOGP3_AA>
4

$$$$
Written by BCL::WriteToMDL,1441513
MBcorina  10171218483D 1   1.00000     0.00000 
CORINA 3.49 0026  01.06.2011
 58 63  0  0  0  0  0  0  0  0999 V2000
    1.9722   -0.8021   -2.0228 O   0  0  0  1  0  2  0  0  0  0  0  0
    1.2182   -0.2820    0.1244 O   0  0  0  1  0  2  0  0  0  0  0  0
   -1.2036   -2.5605    0.0134 N   0  0  0  1  0  3  0  0  0  0  0  0
   -2.6472   -4.0360    1.2132 N   0  0  0  1  0  3  0  0  0  0  0  0
   -2.2327   -3.8503    2.5372 N   0  0  0  1  0  2  0  0  0  0  0  0
   -4.2603   -5.3197    0.0716 N   0  0  0  1  0  2  0  0  0  0  0  0
    1.0014   -1.1247   -1.0190 C   0  0  0  1  0  4  0  0  0  0  0  0
   -0.4055   -0.8837   -1.5697 C   0  0  0  1  0  4  0  0  0  0  0  0
    1.1560   -2.5902   -0.6080 C   0  0  0  1  0  4  0  0  0  0  0  0
    0.1393   -2.9192    0.4897 C   0  0  0  1  0  4  0  0  0  0  0  0
   -1.4368   -1.1967   -0.4809 C   0  0  0  1  0  4  0  0  0  0  0  0
    2.7907    0.2638   -1.4997 C   0  0  0  1  0  4  0  0  0  0  0  0
    1.8948    0.8860   -0.3996 C   0  0  0  1  0  4  0  0  0  0  0  0
   -2.2258   -3.4868    0.0295 C   0  0  0  1  0  3  0  0  0  0  0  0
   -2.8319   -3.8687   -1.1330 C   0  0  0  1  0  3  0  0  0  0  0  0
   -3.6695   -4.9511    1.2162 C   0  0  0  1  0  3  0  0  0  0  0  0
   -3.8716   -4.8142   -1.0879 C   0  0  0  1  0  3  0  0  0  0  0  0
   -3.8793   -5.3233    2.5361 C   0  0  0  1  0  3  0  0  0  0  0  0
   -2.9620   -4.6211    3.3234 C   0  0  0  1  0  3  0  0  0  0  0  0
   -4.5405   -5.2381   -2.3408 C   0  0  0  1  0  3  0  0  0  0  0  0
   -2.8361   -4.7176    4.7992 C   0  0  0  1  0  3  0  0  0  0  0  0
   -5.5783   -6.1683   -2.2999 C   0  0  0  1  0  3  0  0  0  0  0  0
   -4.1382   -4.7039   -3.5642 C   0  0  0  1  0  3  0  0  0  0  0  0
   -1.8845   -3.9531    5.4712 C   0  0  0  1  0  3  0  0  0  0  0  0
   -3.6726   -5.5684    5.5180 C   0  0  0  1  0  3  0  0  0  0  0  0
   -1.7720   -4.0464    6.8435 C   0  0  0  1  0  3  0  0  0  0  0  0
   -6.1976   -6.5588   -3.4696 C   0  0  0  1  0  3  0  0  0  0  0  0
   -4.7651   -5.1020   -4.7273 C   0  0  0  1  0  3  0  0  0  0  0  0
   -3.5516   -5.6540    6.8905 C   0  0  0  1  0  3  0  0  0  0  0  0
   -2.6015   -4.8972    7.5518 C   0  0  0  1  0  3  0  0  0  0  0  0
   -5.7904   -6.0296   -4.6811 C   0  0  0  1  0  3  0  0  0  0  0  0
   -0.7433   -3.2202    7.5717 C   0  0  0  1  0  4  0  0  0  0  0  0
   -0.5032    0.1582   -1.8746 H   0  0  0  1  0  1  0  0  0  0  0  0
   -0.5757   -1.5321   -2.4291 H   0  0  0  1  0  1  0  0  0  0  0  0
    0.9788   -3.2309   -1.4719 H   0  0  0  1  0  1  0  0  0  0  0  0
    2.1650   -2.7578   -0.2313 H   0  0  0  1  0  1  0  0  0  0  0  0
    0.3733   -2.3474    1.3877 H   0  0  0  1  0  1  0  0  0  0  0  0
    0.1750   -3.9854    0.7132 H   0  0  0  1  0  1  0  0  0  0  0  0
   -2.4414   -1.1260   -0.8980 H   0  0  0  1  0  1  0  0  0  0  0  0
   -1.3288   -0.4872    0.3395 H   0  0  0  1  0  1  0  0  0  0  0  0
    3.7103   -0.1325   -1.0692 H   0  0  0  1  0  1  0  0  0  0  0  0
    3.0120    0.9961   -2.2762 H   0  0  0  1  0  1  0  0  0  0  0  0
    1.1821    1.5901   -0.8288 H   0  0  0  1  0  1  0  0  0  0  0  0
    2.4990    1.3654    0.3707 H   0  0  0  1  0  1  0  0  0  0  0  0
   -2.5165   -3.4488   -2.0768 H   0  0  0  1  0  1  0  0  0  0  0  0
   -4.6149   -6.0302    2.8905 H   0  0  0  1  0  1  0  0  0  0  0  0
   -5.8966   -6.5827   -1.3547 H   0  0  0  1  0  1  0  0  0  0  0  0
   -3.3379   -3.9797   -3.6015 H   0  0  0  1  0  1  0  0  0  0  0  0
   -1.2360   -3.2891    4.9191 H   0  0  0  1  0  1  0  0  0  0  0  0
   -4.4149   -6.1598    5.0025 H   0  0  0  1  0  1  0  0  0  0  0  0
   -7.0016   -7.2792   -3.4392 H   0  0  0  1  0  1  0  0  0  0  0  0
   -4.4543   -4.6889   -5.6756 H   0  0  0  1  0  1  0  0  0  0  0  0
   -4.1996   -6.3133    7.4487 H   0  0  0  1  0  1  0  0  0  0  0  0
   -2.5099   -4.9674    8.6256 H   0  0  0  1  0  1  0  0  0  0  0  0
   -6.2775   -6.3387   -5.5941 H   0  0  0  1  0  1  0  0  0  0  0  0
   -1.1805   -2.2627    7.8549 H   0  0  0  1  0  1  0  0  0  0  0  0
   -0.4188   -3.7505    8.4670 H   0  0  0  1  0  1  0  0  0  0  0  0
    0.1135   -3.0497    6.9198 H   0  0  0  1  0  1  0  0  0  0  0  0
  1  7  1  0  0  0  0
  1 12  1  0  0  0  0
  2  7  1  0  0  0  0
  2 13  1  0  0  0  0
  3 10  1  0  0  0  0
  3 11  1  0  0  0  0
  3 14  1  0  0  0  0
  4  5  1  0  0  0  0
  4 14  1  0  0  0  0
  4 16  1  0  0  0  0
  5 19  2  0  0  0  0
  6 16  1  0  0  0  0
  6 17  2  0  0  0  0
  7  8  1  0  0  0  0
  7  9  1  0  0  0  0
  8 11  1  0  0  0  0
  8 33  1  0  0  0  0
  8 34  1  0  0  0  0
  9 10  1  0  0  0  0
  9 35  1  0  0  0  0
  9 36  1  0  0  0  0
 10 37  1  0  0  0  0
 10 38  1  0  0  0  0
 11 39  1  0  0  0  0
 11 40  1  0  0  0  0
 12 13  1  0  0  0  0
 12 41  1  0  0  0  0
 12 42  1  0  0  0  0
 13 43  1  0  0  0  0
 13 44  1  0  0  0  0
 14 15  2  0  0  0  0
 15 17  1  0  0  0  0
 15 45  1  0  0  0  0
 16 18  2  0  0  0  0
 17 20  1  0  0  0  0
 18 19  1  0  0  0  0
 18 46  1  0  0  0  0
 19 21  1  0  0  0  0
 20 22  2  0  0  0  0
 20 23  1  0  0  0  0
 21 24  1  0  0  0  0
 21 25  2  0  0  0  0
 22 27  1  0  0  0  0
 22 47  1  0  0  0  0
 23 28  2  0  0  0  0
 23 48  1  0  0  0  0
 24 26  2  0  0  0  0
 24 49  1  0  0  0  0
 25 29  1  0  0  0  0
 25 50  1  0  0  0  0
 26 30  1  0  0  0  0
 26 32  1  0  0  0  0
 27 31  2  0  0  0  0
 27 51  1  0  0  0  0
 28 31  1  0  0  0  0
 28 52  1  0  0  0  0
 29 30  2  0  0  0  0
 29 53  1  0  0  0  0
 30 54  1  0  0  0  0
 31 55  1  0  0  0  0
 32 56  1  0  0  0  0
 32 57  1  0  0  0  0
 32 58  1  0  0  0  0
M  END
> <Activity>
5.381

> <Mapped(file=504701.csv.activities,property=Cached(PUBCHEM_COMPOUND_CID))>
5.381

> <PUBCHEM_ATOM_DEF_STEREO_COUNT>
0

> <PUBCHEM_ATOM_UDEF_STEREO_COUNT>
0

> <PUBCHEM_BONDANNOTATIONS>
14  15  8
15  17  8
16  18  8
18  19  8
20  22  8
20  23  8
21  24  8
21  25  8
22  27  8
23  28  8
24  26  8
25  29  8
26  30  8
27  31  8
28  31  8
29  30  8
4  14  8
4  16  8
4  5  8
5  19  8
6  16  8
6  17  8

> <PUBCHEM_BOND_DEF_STEREO_COUNT>
0

> <PUBCHEM_BOND_UDEF_STEREO_COUNT>
0

> <PUBCHEM_CACTVS_COMPLEXITY>
625

> <PUBCHEM_CACTVS_HBOND_ACCEPTOR>
3

> <PUBCHEM_CACTVS_HBOND_DONOR>
0

> <PUBCHEM_CACTVS_ROTATABLE_BOND>
3

> <PUBCHEM_CACTVS_SUBSKEYS>
AAADceB7sAAAAAAAAAAAAAAAAAAAAWJAAAA8eIEAAAAAAFgB9AAAHgAIAAAADAzhnwYzuJ8IFACiAyZiZACShCshAqAdmCA4ZJiZKOLA2dGmpAhqiALOyCcQgMAOAAACAAAAAAAAAAQAAAAAAAAAAAAAAA==

> <PUBCHEM_CACTVS_TAUTO_COUNT>
1

> <PUBCHEM_CACTVS_TPSA>
51.9

> <PUBCHEM_COMPONENT_COUNT>
1

> <PUBCHEM_COMPOUND_CANONICALIZED>
1

> <PUBCHEM_COMPOUND_CID>
1441513

> <PUBCHEM_COORDINATE_TYPE>
1
5
255

> <PUBCHEM_EXACT_MASS>
426.205576

> <PUBCHEM_HEAVY_ATOM_COUNT>
32

> <PUBCHEM_ISOTOPIC_ATOM_COUNT>
0

> <PUBCHEM_IUPAC_CAS_NAME>
8-[2-(3-methylphenyl)-5-phenyl-7-pyrazolo[1,5-a]pyrimidinyl]-1,4-dioxa-8-azaspiro[4.5]decane

> <PUBCHEM_IUPAC_INCHI>
InChI=1S/C26H26N4O2/c1-19-6-5-9-21(16-19)23-17-24-27-22(20-7-3-2-4-8-20)18-25(30(24)28-23)29-12-10-26(11-13-29)31-14-15-32-26/h2-9,16-18H,10-15H2,1H3

> <PUBCHEM_IUPAC_INCHIKEY>
UGVJHWHYSYFWHY-UHFFFAOYSA-N

> <PUBCHEM_IUPAC_NAME>
8-[2-(3-methylphenyl)-5-phenylpyrazolo[1,5-a]pyrimidin-7-yl]-1,4-dioxa-8-azaspiro[4.5]decane

> <PUBCHEM_IUPAC_OPENEYE_NAME>
8-[2-(m-tolyl)-5-phenyl-pyrazolo[1,5-a]pyrimidin-7-yl]-1,4-dioxa-8-azaspiro[4.5]decane

> <PUBCHEM_IUPAC_SYSTEMATIC_NAME>
8-[2-(3-methylphenyl)-5-phenyl-pyrazolo[1,5-a]pyrimidin-7-yl]-1,4-dioxa-8-azaspiro[4.5]decane

> <PUBCHEM_IUPAC_TRADITIONAL_NAME>
8-[2-(m-tolyl)-5-phenyl-pyrazolo[1,5-a]pyrimidin-7-yl]-1,4-dioxa-8-azaspiro[4.5]decane

> <PUBCHEM_MOLECULAR_FORMULA>
C26H26N4O2

> <PUBCHEM_MOLECULAR_WEIGHT>
426.51024

> <PUBCHEM_MONOISOTOPIC_WEIGHT>
426.205576

> <PUBCHEM_OPENEYE_CAN_SMILES>
CC1=CC=CC(=C1)C2=NN3C(=C2)N=C(C=C3N4CCC5(CC4)OCCO5)C6=CC=CC=C6

> <PUBCHEM_OPENEYE_ISO_SMILES>
CC1=CC=CC(=C1)C2=NN3C(=C2)N=C(C=C3N4CCC5(CC4)OCCO5)C6=CC=CC=C6

> <PUBCHEM_TOTAL_CHARGE>
0

> <PUBCHEM_XLOGP3_AA>
4.4

$$$$
Written by BCL::WriteToMDL,612460
MBcorina  10171218483D 1   1.00000     0.00000 
CORINA 3.49 0026  01.06.2011
 31 32  0  0  0  0  0  0  0  0999 V2000
   -0.0162    1.3432    0.0094 O   0  0  0  1  0  2  0  0  0  0  0  0
    1.0624   -0.5972   -0.0113 O   0  0  0  1  0  1  0  0  0  0  0  0
   -4.6752   -3.0896    0.0277 N   0  0  0  1  0  3  0  0  0  0  0  0
   -2.4495   -2.8512    0.0101 C   0  0  0  1  0  3  0  0  0  0  0  0
   -2.7984   -4.2749    0.0066 C   0  0  0  1  0  3  0  0  0  0  0  0
   -3.6720   -2.1511    0.0235 C   0  0  0  1  0  3  0  0  0  0  0  0
   -4.1383   -4.3485    0.0175 C   0  0  0  1  0  3  0  0  0  0  0  0
   -1.2459   -2.1510    0.0024 C   0  0  0  1  0  3  0  0  0  0  0  0
   -3.6683   -0.7573    0.0302 C   0  0  0  1  0  3  0  0  0  0  0  0
   -1.2653   -0.7590    0.0101 C   0  0  0  1  0  3  0  0  0  0  0  0
   -1.8362   -5.4346   -0.0071 C   0  0  0  1  0  4  0  0  0  0  0  0
   -2.4891   -0.0739    0.0238 C   0  0  0  1  0  3  0  0  0  0  0  0
   -4.9341   -5.6282    0.0188 C   0  0  0  1  0  4  0  0  0  0  0  0
    0.0021   -0.0041    0.0020 C   0  0  0  1  0  3  0  0  0  0  0  0
    1.2684    2.0199    0.0008 C   0  0  0  1  0  4  0  0  0  0  0  0
    1.0474    3.5338    0.0110 C   0  0  0  1  0  4  0  0  0  0  0  0
   -5.6243   -2.8896    0.0401 H   0  0  0  1  0  1  0  0  0  0  0  0
   -0.3061   -2.6829   -0.0082 H   0  0  0  1  0  1  0  0  0  0  0  0
   -4.6034   -0.2169    0.0400 H   0  0  0  1  0  1  0  0  0  0  0  0
   -1.5952   -5.7189    1.0172 H   0  0  0  1  0  1  0  0  0  0  0  0
   -2.2935   -6.2802   -0.5208 H   0  0  0  1  0  1  0  0  0  0  0  0
   -0.9238   -5.1435   -0.5275 H   0  0  0  1  0  1  0  0  0  0  0  0
   -2.4971    1.0061    0.0290 H   0  0  0  1  0  1  0  0  0  0  0  0
   -5.1345   -5.9325   -1.0084 H   0  0  0  1  0  1  0  0  0  0  0  0
   -4.3660   -6.4088    0.5247 H   0  0  0  1  0  1  0  0  0  0  0  0
   -5.8774   -5.4689    0.5412 H   0  0  0  1  0  1  0  0  0  0  0  0
    1.8378    1.7299    0.8838 H   0  0  0  1  0  1  0  0  0  0  0  0
    1.8208    1.7394   -0.8960 H   0  0  0  1  0  1  0  0  0  0  0  0
    2.0118    4.0418    0.0046 H   0  0  0  1  0  1  0  0  0  0  0  0
    0.4780    3.8239   -0.8720 H   0  0  0  1  0  1  0  0  0  0  0  0
    0.4950    3.8143    0.9079 H   0  0  0  1  0  1  0  0  0  0  0  0
  1 14  1  0  0  0  0
  1 15  1  0  0  0  0
  2 14  2  0  0  0  0
  3  6  1  0  0  0  0
  3  7  1  0  0  0  0
  3 17  1  0  0  0  0
  4  5  1  0  0  0  0
  4  6  2  0  0  0  0
  4  8  1  0  0  0  0
  5  7  2  0  0  0  0
  5 11  1  0  0  0  0
  6  9  1  0  0  0  0
  7 13  1  0  0  0  0
  8 10  2  0  0  0  0
  8 18  1  0  0  0  0
  9 12  2  0  0  0  0
  9 19  1  0  0  0  0
 10 12  1  0  0  0  0
 10 14  1  0  0  0  0
 11 20  1  0  0  0  0
 11 21  1  0  0  0  0
 11 22  1  0  0  0  0
 12 23  1  0  0  0  0
 13 24  1  0  0  0  0
 13 25  1  0  0  0  0
 13 26  1  0  0  0  0
 15 16  1  0  0  0  0
 15 27  1  0  0  0  0
 15 28  1  0  0  0  0
 16 29  1  0  0  0  0
 16 30  1  0  0  0  0
 16 31  1  0  0  0  0
M  END
> <Activity>
5.445

> <Mapped(file=504701.csv.activities,property=Cached(PUBCHEM_COMPOUND_CID))>
5.445

> <PUBCHEM_ATOM_DEF_STEREO_COUNT>
0

> <PUBCHEM_ATOM_UDEF_STEREO_COUNT>
0

> <PUBCHEM_BONDANNOTATIONS>
10  12  8
3  6  8
3  7  8
4  5  8
4  6  8
4  8  8
5  7  8
6  9  8
8  10  8
9  12  8

> <PUBCHEM_BOND_DEF_STEREO_COUNT>
0

> <PUBCHEM_BOND_UDEF_STEREO_COUNT>
0

> <PUBCHEM_CACTVS_COMPLEXITY>
267

> <PUBCHEM_CACTVS_HBOND_ACCEPTOR>
2

> <PUBCHEM_CACTVS_HBOND_DONOR>
1

> <PUBCHEM_CACTVS_ROTATABLE_BOND>
3

> <PUBCHEM_CACTVS_SUBSKEYS>
AAADccByMAAAAAAAAAAAAAAAAAAAAWAAAAAwAAAAAAAAAFgB8AAAHgAQAAAADAihngIyyPLJlACoAyTyTACCgCAlAiAImSEwbNgIJvLAtZmGMQhk0AHI6YeY2fOeiAACAAACAAAQAAQAAAQAAAAAAAAAAA==

> <PUBCHEM_CACTVS_TAUTO_COUNT>
3

> <PUBCHEM_CACTVS_TPSA>
42.1

> <PUBCHEM_COMPONENT_COUNT>
1

> <PUBCHEM_COMPOUND_CANONICALIZED>
1

> <PUBCHEM_COMPOUND_CID>
612460

> <PUBCHEM_COORDINATE_TYPE>
1
5
255

> <PUBCHEM_EXACT_MASS>
217.110279

> <PUBCHEM_HEAVY_ATOM_COUNT>
16

> <PUBCHEM_ISOTOPIC_ATOM_COUNT>
0

> <PUBCHEM_IUPAC_CAS_NAME>
2,3-dimethyl-1H-indole-5-carboxylic acid ethyl ester

> <PUBCHEM_IUPAC_INCHI>
InChI=1S/C13H15NO2/c1-4-16-13(15)10-5-6-12-11(7-10)8(2)9(3)14-12/h5-7,14H,4H2,1-3H3

> <PUBCHEM_IUPAC_INCHIKEY>
VQDRHZVLRCGSFX-UHFFFAOYSA-N

> <PUBCHEM_IUPAC_NAME>
ethyl 2,3-dimethyl-1H-indole-5-carboxylate

> <PUBCHEM_IUPAC_OPENEYE_NAME>
ethyl 2,3-dimethyl-1H-indole-5-carboxylate

> <PUBCHEM_IUPAC_SYSTEMATIC_NAME>
ethyl 2,3-dimethyl-1H-indole-5-carboxylate

> <PUBCHEM_IUPAC_TRADITIONAL_NAME>
2,3-dimethyl-1H-indole-5-carboxylic acid ethyl ester

> <PUBCHEM_MOLECULAR_FORMULA>
C13H15NO2

> <PUBCHEM_MOLECULAR_WEIGHT>
217.2637

> <PUBCHEM_MONOISOTOPIC_WEIGHT>
217.110279

> <PUBCHEM_OPENEYE_CAN_SMILES>
CCOC(=O)C1=CC2=C(C=C1)NC(=C2C)C

> <PUBCHEM_OPENEYE_ISO_SMILES>
CCOC(=O)C1=CC2=C(C=C1)NC(=C2C)C

> <PUBCHEM_TOTAL_CHARGE>
0

> <PUBCHEM_XLOGP3_AA>
3

$$$$
Written by BCL::WriteToMDL,7847536
MBcorina  10171218483D 1   1.00000     0.00000 
CORINA 3.49 0026  01.06.2011
 45 47  0  0  0  0  0  0  0  0999 V2000
   -0.0211    1.7019    0.0114 S   0  0  0  1  0  2  0  0  0  0  0  0
    1.9258    4.2031    0.0067 O   0  0  0  1  0  2  0  0  0  0  0  0
    0.7207    6.5260    0.0317 O   0  0  0  1  0  1  0  0  0  0  0  0
    3.7500    2.9337   -0.0184 O   0  0  0  1  0  1  0  0  0  0  0  0
    2.5123    7.8348    0.0213 N   0  0  0  1  0  3  0  0  0  0  0  0
    3.8846    8.0763    0.0086 N   0  0  0  1  0  2  0  0  0  0  0  0
    2.9408   10.1633    0.0202 C   0  0  0  1  0  4  0  0  0  0  0  0
    1.8025    9.1239    0.0297 C   0  0  0  1  0  4  0  0  0  0  0  0
    4.1992    9.3252    0.0072 C   0  0  0  1  0  3  0  0  0  0  0  0
    5.5752    9.8561   -0.0052 C   0  0  0  1  0  3  0  0  0  0  0  0
    1.9302    6.6193    0.0202 C   0  0  0  1  0  3  0  0  0  0  0  0
    1.2584   -0.4659   -0.0125 C   0  0  0  1  0  3  0  0  0  0  0  0
    2.7817    5.3760    0.0048 C   0  0  0  1  0  4  0  0  0  0  0  0
    1.5784   -1.9385   -0.0234 C   0  0  0  1  0  4  0  0  0  0  0  0
    0.0021   -0.0041    0.0020 C   0  0  0  1  0  3  0  0  0  0  0  0
    6.6646    8.9819   -0.0172 C   0  0  0  1  0  3  0  0  0  0  0  0
    5.7951   11.2356   -0.0109 C   0  0  0  1  0  3  0  0  0  0  0  0
    2.2350    0.5008   -0.0166 C   0  0  0  1  0  3  0  0  0  0  0  0
    1.7357    1.7738   -0.0050 C   0  0  0  1  0  3  0  0  0  0  0  0
    2.5356    2.9999   -0.0060 C   0  0  0  1  0  3  0  0  0  0  0  0
    1.5501   -2.4558   -1.4630 C   0  0  0  1  0  4  0  0  0  0  0  0
    7.9486    9.4854   -0.0293 C   0  0  0  1  0  3  0  0  0  0  0  0
    7.0846   11.7250   -0.0230 C   0  0  0  1  0  3  0  0  0  0  0  0
   -1.2278   -0.8749    0.0099 C   0  0  0  1  0  4  0  0  0  0  0  0
    8.1590   10.8531   -0.0290 C   0  0  0  1  0  3  0  0  0  0  0  0
    2.8851   10.7833   -0.8746 H   0  0  0  1  0  1  0  0  0  0  0  0
    2.9021   10.7810    0.9175 H   0  0  0  1  0  1  0  0  0  0  0  0
    1.1823    9.2260   -0.8608 H   0  0  0  1  0  1  0  0  0  0  0  0
    1.1993    9.2238    0.9320 H   0  0  0  1  0  1  0  0  0  0  0  0
    3.4197    5.3616    0.8885 H   0  0  0  1  0  1  0  0  0  0  0  0
    3.4021    5.3716   -0.8914 H   0  0  0  1  0  1  0  0  0  0  0  0
    2.5698   -2.0981    0.4006 H   0  0  0  1  0  1  0  0  0  0  0  0
    0.8386   -2.4755    0.5702 H   0  0  0  1  0  1  0  0  0  0  0  0
    3.2916    0.2774   -0.0279 H   0  0  0  1  0  1  0  0  0  0  0  0
    6.5018    7.9142   -0.0167 H   0  0  0  1  0  1  0  0  0  0  0  0
    4.9574   11.9172   -0.0062 H   0  0  0  1  0  1  0  0  0  0  0  0
    1.7815   -3.5209   -1.4710 H   0  0  0  1  0  1  0  0  0  0  0  0
    0.5587   -2.2963   -1.8870 H   0  0  0  1  0  1  0  0  0  0  0  0
    2.2899   -1.9188   -2.0567 H   0  0  0  1  0  1  0  0  0  0  0  0
   -2.1181   -0.2461    0.0218 H   0  0  0  1  0  1  0  0  0  0  0  0
   -1.2363   -1.4997   -0.8832 H   0  0  0  1  0  1  0  0  0  0  0  0
   -1.2187   -1.5086    0.8966 H   0  0  0  1  0  1  0  0  0  0  0  0
    8.7919    8.8107   -0.0385 H   0  0  0  1  0  1  0  0  0  0  0  0
    7.2561   12.7913   -0.0277 H   0  0  0  1  0  1  0  0  0  0  0  0
    9.1666   11.2418   -0.0378 H   0  0  0  1  0  1  0  0  0  0  0  0
  1 15  1  0  0  0  0
  1 19  1  0  0  0  0
  2 13  1  0  0  0  0
  2 20  1  0  0  0  0
  3 11  2  0  0  0  0
  4 20  2  0  0  0  0
  5  6  1  0  0  0  0
  5  8  1  0  0  0  0
  5 11  1  0  0  0  0
  6  9  2  0  0  0  0
  7  8  1  0  0  0  0
  7  9  1  0  0  0  0
  7 26  1  0  0  0  0
  7 27  1  0  0  0  0
  8 28  1  0  0  0  0
  8 29  1  0  0  0  0
  9 10  1  0  0  0  0
 10 16  2  0  0  0  0
 10 17  1  0  0  0  0
 11 13  1  0  0  0  0
 12 14  1  0  0  0  0
 12 15  2  0  0  0  0
 12 18  1  0  0  0  0
 13 30  1  0  0  0  0
 13 31  1  0  0  0  0
 14 21  1  0  0  0  0
 14 32  1  0  0  0  0
 14 33  1  0  0  0  0
 15 24  1  0  0  0  0
 16 22  1  0  0  0  0
 16 35  1  0  0  0  0
 17 23  2  0  0  0  0
 17 36  1  0  0  0  0
 18 19  2  0  0  0  0
 18 34  1  0  0  0  0
 19 20  1  0  0  0  0
 21 37  1  0  0  0  0
 21 38  1  0  0  0  0
 21 39  1  0  0  0  0
 22 25  2  0  0  0  0
 22 43  1  0  0  0  0
 23 25  1  0  0  0  0
 23 44  1  0  0  0  0
 24 40  1  0  0  0  0
 24 41  1  0  0  0  0
 24 42  1  0  0  0  0
 25 45  1  0  0  0  0
M  END
> <Activity>
2.453

> <Mapped(file=504701.csv.activities,property=Cached(PUBCHEM_COMPOUND_CID))>
2.453

> <PUBCHEM_ATOM_DEF_STEREO_COUNT>
0

> <PUBCHEM_ATOM_UDEF_STEREO_COUNT>
0

> <PUBCHEM_BONDANNOTATIONS>
1  15  8
1  19  8
10  16  8
10  17  8
12  15  8
12  18  8
16  22  8
17  23  8
18  19  8
22  25  8
23  25  8

> <PUBCHEM_BOND_DEF_STEREO_COUNT>
0

> <PUBCHEM_BOND_UDEF_STEREO_COUNT>
0

> <PUBCHEM_CACTVS_COMPLEXITY>
531

> <PUBCHEM_CACTVS_HBOND_ACCEPTOR>
5

> <PUBCHEM_CACTVS_HBOND_DONOR>
0

> <PUBCHEM_CACTVS_ROTATABLE_BOND>
6

> <PUBCHEM_CACTVS_SUBSKEYS>
AAADceB7MABAAAAAAAAAAAAAAAAAASIAAAAwAAAAAAAAAAABwAAAHgQIAAAADAjh2AYyCYIABAisAyHyGAITAIAkCBBaiBl4CNgKJrKgtRyHMQAkzgG4qYeYyIAOAAAAAAAAAAAAAAAAAAAAAAAAAAAAAA==

> <PUBCHEM_CACTVS_TAUTO_COUNT>
3

> <PUBCHEM_CACTVS_TPSA>
87.2

> <PUBCHEM_COMPONENT_COUNT>
1

> <PUBCHEM_COMPOUND_CANONICALIZED>
1

> <PUBCHEM_COMPOUND_CID>
7847536

> <PUBCHEM_COORDINATE_TYPE>
1
5
255

> <PUBCHEM_EXACT_MASS>
356.119464

> <PUBCHEM_HEAVY_ATOM_COUNT>
25

> <PUBCHEM_ISOTOPIC_ATOM_COUNT>
0

> <PUBCHEM_IUPAC_CAS_NAME>
4-ethyl-5-methyl-2-thiophenecarboxylic acid [2-oxo-2-(5-phenyl-3,4-dihydropyrazol-2-yl)ethyl] ester

> <PUBCHEM_IUPAC_INCHI>
InChI=1S/C19H20N2O3S/c1-3-14-11-17(25-13(14)2)19(23)24-12-18(22)21-10-9-16(20-21)15-7-5-4-6-8-15/h4-8,11H,3,9-10,12H2,1-2H3

> <PUBCHEM_IUPAC_INCHIKEY>
PTGPLMZMHWFKRC-UHFFFAOYSA-N

> <PUBCHEM_IUPAC_NAME>
[2-oxo-2-(5-phenyl-3,4-dihydropyrazol-2-yl)ethyl] 4-ethyl-5-methylthiophene-2-carboxylate

> <PUBCHEM_IUPAC_OPENEYE_NAME>
[2-oxo-2-(5-phenyl-3,4-dihydropyrazol-2-yl)ethyl] 4-ethyl-5-methyl-thiophene-2-carboxylate

> <PUBCHEM_IUPAC_SYSTEMATIC_NAME>
[2-oxidanylidene-2-(5-phenyl-3,4-dihydropyrazol-2-yl)ethyl] 4-ethyl-5-methyl-thiophene-2-carboxylate

> <PUBCHEM_IUPAC_TRADITIONAL_NAME>
4-ethyl-5-methyl-thiophene-2-carboxylic acid [2-keto-2-(3-phenyl-2-pyrazolin-1-yl)ethyl] ester

> <PUBCHEM_MOLECULAR_FORMULA>
C19H20N2O3S

> <PUBCHEM_MOLECULAR_WEIGHT>
356.4387

> <PUBCHEM_MONOISOTOPIC_WEIGHT>
356.119464

> <PUBCHEM_OPENEYE_CAN_SMILES>
CCC1=C(SC(=C1)C(=O)OCC(=O)N2CCC(=N2)C3=CC=CC=C3)C

> <PUBCHEM_OPENEYE_ISO_SMILES>
CCC1=C(SC(=C1)C(=O)OCC(=O)N2CCC(=N2)C3=CC=CC=C3)C

> <PUBCHEM_TOTAL_CHARGE>
0

> <PUBCHEM_XLOGP3_AA>
4

$$$$
Written by BCL::WriteToMDL,2347892
MBcorina  10171218483D 1   1.00000     0.00000 
CORINA 3.49 0026  01.06.2011
 41 45  0  0  0  0  0  0  0  0999 V2000
   -0.0169    1.3984    0.0097 N   0  0  0  1  0  3  0  0  0  0  0  0
   -3.2497   -5.6406    0.0019 N   0  0  0  1  0  3  0  0  0  0  0  0
    0.0021   -0.0041    0.0020 N   0  0  0  1  0  2  0  0  0  0  0  0
   -2.0474    0.6737    0.0371 N   0  0  0  1  0  2  0  0  0  0  0  0
   -4.7129   -4.0222    0.0253 N   0  0  0  1  0  2  0  0  0  0  0  0
    0.8244    2.5979    0.0081 C   0  0  0  1  0  4  0  0  0  0  0  0
   -1.3142    1.7721    0.0316 C   0  0  0  1  0  3  0  0  0  0  0  0
   -0.1178    3.7754    0.0234 C   0  0  0  1  0  3  0  0  0  0  0  0
   -1.4101    3.2489    0.0409 C   0  0  0  1  0  3  0  0  0  0  0  0
   -2.5351   -4.4593    0.0014 C   0  0  0  1  0  3  0  0  0  0  0  0
   -1.2525   -0.4009    0.0119 C   0  0  0  1  0  3  0  0  0  0  0  0
   -1.7106   -1.8126    0.0086 C   0  0  0  1  0  3  0  0  0  0  0  0
   -3.4912   -3.4289    0.0165 C   0  0  0  1  0  3  0  0  0  0  0  0
   -4.5705   -5.3153    0.0167 C   0  0  0  1  0  3  0  0  0  0  0  0
   -3.0682   -2.0986    0.0201 C   0  0  0  1  0  3  0  0  0  0  0  0
   -2.6893   -6.9940   -0.0165 C   0  0  0  1  0  4  0  0  0  0  0  0
   -1.1801   -4.1528   -0.0099 C   0  0  0  1  0  3  0  0  0  0  0  0
    0.0778    5.1373    0.0285 C   0  0  0  1  0  3  0  0  0  0  0  0
   -0.7724   -2.8491   -0.0063 C   0  0  0  1  0  3  0  0  0  0  0  0
   -2.5031    4.1155    0.0622 C   0  0  0  1  0  3  0  0  0  0  0  0
   -1.0118    5.9920    0.0431 C   0  0  0  1  0  3  0  0  0  0  0  0
   -2.2968    5.4801    0.0661 C   0  0  0  1  0  3  0  0  0  0  0  0
   -5.7039   -6.3085    0.0220 C   0  0  0  1  0  4  0  0  0  0  0  0
   -2.4743   -7.4766    1.4194 C   0  0  0  1  0  4  0  0  0  0  0  0
    1.4568    2.6129    0.8958 H   0  0  0  1  0  1  0  0  0  0  0  0
    1.4398    2.6225   -0.8912 H   0  0  0  1  0  1  0  0  0  0  0  0
   -3.7926   -1.2976    0.0320 H   0  0  0  1  0  1  0  0  0  0  0  0
   -3.3796   -7.6662   -0.5262 H   0  0  0  1  0  1  0  0  0  0  0  0
   -1.7352   -6.9851   -0.5435 H   0  0  0  1  0  1  0  0  0  0  0  0
   -0.4479   -4.9466   -0.0215 H   0  0  0  1  0  1  0  0  0  0  0  0
    1.0802    5.5394    0.0215 H   0  0  0  1  0  1  0  0  0  0  0  0
    0.2824   -2.6173   -0.0155 H   0  0  0  1  0  1  0  0  0  0  0  0
   -3.5078    3.7197    0.0752 H   0  0  0  1  0  1  0  0  0  0  0  0
   -0.8578    7.0609    0.0474 H   0  0  0  1  0  1  0  0  0  0  0  0
   -3.1426    6.1515    0.0826 H   0  0  0  1  0  1  0  0  0  0  0  0
   -5.9672   -6.5540    1.0508 H   0  0  0  1  0  1  0  0  0  0  0  0
   -6.5687   -5.8756   -0.4809 H   0  0  0  1  0  1  0  0  0  0  0  0
   -5.3958   -7.2143   -0.5002 H   0  0  0  1  0  1  0  0  0  0  0  0
   -2.0573   -8.4836    1.4056 H   0  0  0  1  0  1  0  0  0  0  0  0
   -1.7840   -6.8044    1.9290 H   0  0  0  1  0  1  0  0  0  0  0  0
   -3.4284   -7.4856    1.9464 H   0  0  0  1  0  1  0  0  0  0  0  0
  1  3  1  0  0  0  0
  1  6  1  0  0  0  0
  1  7  1  0  0  0  0
  2 10  1  0  0  0  0
  2 14  1  0  0  0  0
  2 16  1  0  0  0  0
  3 11  2  0  0  0  0
  4  7  2  0  0  0  0
  4 11  1  0  0  0  0
  5 13  1  0  0  0  0
  5 14  2  0  0  0  0
  6  8  1  0  0  0  0
  6 25  1  0  0  0  0
  6 26  1  0  0  0  0
  7  9  1  0  0  0  0
  8  9  1  0  0  0  0
  8 18  2  0  0  0  0
  9 20  2  0  0  0  0
 10 13  2  0  0  0  0
 10 17  1  0  0  0  0
 11 12  1  0  0  0  0
 12 15  2  0  0  0  0
 12 19  1  0  0  0  0
 13 15  1  0  0  0  0
 14 23  1  0  0  0  0
 15 27  1  0  0  0  0
 16 24  1  0  0  0  0
 16 28  1  0  0  0  0
 16 29  1  0  0  0  0
 17 19  2  0  0  0  0
 17 30  1  0  0  0  0
 18 21  1  0  0  0  0
 18 31  1  0  0  0  0
 19 32  1  0  0  0  0
 20 22  1  0  0  0  0
 20 33  1  0  0  0  0
 21 22  2  0  0  0  0
 21 34  1  0  0  0  0
 22 35  1  0  0  0  0
 23 36  1  0  0  0  0
 23 37  1  0  0  0  0
 23 38  1  0  0  0  0
 24 39  1  0  0  0  0
 24 40  1  0  0  0  0
 24 41  1  0  0  0  0
M  END
> <Activity>
2.691

> <Mapped(file=504701.csv.activities,property=Cached(PUBCHEM_COMPOUND_CID))>
2.691

> <PUBCHEM_ATOM_DEF_STEREO_COUNT>
0

> <PUBCHEM_ATOM_UDEF_STEREO_COUNT>
0

> <PUBCHEM_BONDANNOTATIONS>
1  3  8
1  7  8
10  13  8
10  17  8
12  15  8
12  19  8
13  15  8
17  19  8
18  21  8
2  10  8
2  14  8
20  22  8
21  22  8
3  11  8
4  11  8
4  7  8
5  13  8
5  14  8
8  18  8
8  9  8
9  20  8

> <PUBCHEM_BOND_DEF_STEREO_COUNT>
0

> <PUBCHEM_BOND_UDEF_STEREO_COUNT>
0

> <PUBCHEM_CACTVS_COMPLEXITY>
471

> <PUBCHEM_CACTVS_HBOND_ACCEPTOR>
0

> <PUBCHEM_CACTVS_HBOND_DONOR>
0

> <PUBCHEM_CACTVS_ROTATABLE_BOND>
2

> <PUBCHEM_CACTVS_SUBSKEYS>
AAADceB7gAAAAAAAAAAAAAAAAAAAAWLFgAAwYAAAAAAWAFgB/AAAHAAIAAAADAjBHwQz0LcMEACiAyZiZACSgC8hkqAd2CA4dJiIaKLAmZGUIAhoiALIyCcQgIAOiAAAQAAQACAQAACAACAAQAAAAAAAAA==

> <PUBCHEM_CACTVS_TAUTO_COUNT>
1

> <PUBCHEM_CACTVS_TPSA>
48.5

> <PUBCHEM_COMPONENT_COUNT>
1

> <PUBCHEM_COMPOUND_CANONICALIZED>
1

> <PUBCHEM_COMPOUND_CID>
2347892

> <PUBCHEM_COORDINATE_TYPE>
1
5
255

> <PUBCHEM_EXACT_MASS>
315.148396

> <PUBCHEM_HEAVY_ATOM_COUNT>
24

> <PUBCHEM_ISOTOPIC_ATOM_COUNT>
0

> <PUBCHEM_IUPAC_CAS_NAME>
2-(1-ethyl-2-methyl-5-benzimidazolyl)-5H-[1,2,4]triazolo[5,1-a]isoindole

> <PUBCHEM_IUPAC_INCHI>
InChI=1S/C19H17N5/c1-3-23-12(2)20-16-10-13(8-9-17(16)23)18-21-19-15-7-5-4-6-14(15)11-24(19)22-18/h4-10H,3,11H2,1-2H3

> <PUBCHEM_IUPAC_INCHIKEY>
LKXRGCHIXZTUBX-UHFFFAOYSA-N

> <PUBCHEM_IUPAC_NAME>
2-(1-ethyl-2-methylbenzimidazol-5-yl)-5H-[1,2,4]triazolo[5,1-a]isoindole

> <PUBCHEM_IUPAC_OPENEYE_NAME>
2-(1-ethyl-2-methyl-benzimidazol-5-yl)-5H-[1,2,4]triazolo[5,1-a]isoindole

> <PUBCHEM_IUPAC_SYSTEMATIC_NAME>
2-(1-ethyl-2-methyl-benzimidazol-5-yl)-5H-[1,2,4]triazolo[5,1-a]isoindole

> <PUBCHEM_IUPAC_TRADITIONAL_NAME>
2-(1-ethyl-2-methyl-benzimidazol-5-yl)-5H-[1,2,4]triazol[5,1-a]isoindole

> <PUBCHEM_MOLECULAR_FORMULA>
C19H17N5

> <PUBCHEM_MOLECULAR_WEIGHT>
315.37178

> <PUBCHEM_MONOISOTOPIC_WEIGHT>
315.148396

> <PUBCHEM_OPENEYE_CAN_SMILES>
CCN1C(=NC2=C1C=CC(=C2)C3=NN4CC5=CC=CC=C5C4=N3)C

> <PUBCHEM_OPENEYE_ISO_SMILES>
CCN1C(=NC2=C1C=CC(=C2)C3=NN4CC5=CC=CC=C5C4=N3)C

> <PUBCHEM_TOTAL_CHARGE>
0

> <PUBCHEM_XLOGP3_AA>
3.2

$$$$
Written by BCL::WriteToMDL,5521669
MBcorina  10171218483D 1   1.00000     0.00000 
CORINA 3.49 0026  01.06.2011
 36 39  0  0  0  0  0  0  0  0999 V2000
    3.9170    0.3189    0.4036 Cl  0  0  0  1  0  1  0  0  0  0  0  0
    5.2804    6.6233    0.1957 Cl  0  0  0  1  0  1  0  0  0  0  0  0
   -0.0562    1.7705    0.0909 S   0  0  0  1  0  2  0  0  0  0  0  0
    3.6983    3.0188    0.2764 O   0  0  0  1  0  1  0  0  0  0  0  0
    4.4642    9.2053    0.2944 N   0  0  0  1  0  2  0  0  0  0  0  0
    2.6229    5.4474    0.1081 N   0  0  0  1  0  3  0  0  0  0  0  0
    1.8679    4.2673    0.1094 N   0  0  0  1  0  3  0  0  0  0  0  0
    2.2267    9.1944    0.1715 C   0  0  0  1  0  3  0  0  0  0  0  0
    1.2733   -0.4459    0.2674 C   0  0  0  1  0  3  0  0  0  0  0  0
    2.7382    7.8101    0.1231 C   0  0  0  1  0  3  0  0  0  0  0  0
   -0.0462    0.0122    0.1647 C   0  0  0  1  0  3  0  0  0  0  0  0
    3.3743   10.0091    0.2792 C   0  0  0  1  0  3  0  0  0  0  0  0
    1.6940    1.8356    0.1991 C   0  0  0  1  0  3  0  0  0  0  0  0
    2.2086    0.6031    0.2830 C   0  0  0  1  0  3  0  0  0  0  0  0
    0.9617    9.7659    0.1343 C   0  0  0  1  0  3  0  0  0  0  0  0
    4.1492    7.9401    0.2074 C   0  0  0  1  0  3  0  0  0  0  0  0
    1.5024   -1.8403    0.3399 C   0  0  0  1  0  3  0  0  0  0  0  0
    2.0045    6.6442    0.0196 C   0  0  0  1  0  3  0  0  0  0  0  0
   -1.1015   -0.9052    0.1360 C   0  0  0  1  0  3  0  0  0  0  0  0
    3.2143   11.3976    0.3470 C   0  0  0  1  0  3  0  0  0  0  0  0
    2.4853    3.0725    0.1977 C   0  0  0  1  0  3  0  0  0  0  0  0
    0.8294   11.1372    0.2031 C   0  0  0  1  0  3  0  0  0  0  0  0
    0.4603   -2.7132    0.3107 C   0  0  0  1  0  3  0  0  0  0  0  0
   -0.8468   -2.2538    0.2087 C   0  0  0  1  0  3  0  0  0  0  0  0
    1.9525   11.9455    0.3083 C   0  0  0  1  0  3  0  0  0  0  0  0
    0.0856    9.1398    0.0516 H   0  0  0  1  0  1  0  0  0  0  0  0
    2.5125   -2.2141    0.4191 H   0  0  0  1  0  1  0  0  0  0  0  0
    0.9362    6.6902   -0.1321 H   0  0  0  1  0  1  0  0  0  0  0  0
   -2.1193   -0.5529    0.0568 H   0  0  0  1  0  1  0  0  0  0  0  0
    4.0798   12.0383    0.4300 H   0  0  0  1  0  1  0  0  0  0  0  0
   -0.1533   11.5842    0.1740 H   0  0  0  1  0  1  0  0  0  0  0  0
    0.6508   -3.7748    0.3666 H   0  0  0  1  0  1  0  0  0  0  0  0
   -1.6651   -2.9583    0.1869 H   0  0  0  1  0  1  0  0  0  0  0  0
    1.8349   13.0177    0.3614 H   0  0  0  1  0  1  0  0  0  0  0  0
    3.5899    5.4046    0.1708 H   0  0  0  1  0  1  0  0  0  0  0  0
    0.9009    4.3101    0.0467 H   0  0  0  1  0  1  0  0  0  0  0  0
  1 14  1  0  0  0  0
  2 16  1  0  0  0  0
  3 11  1  0  0  0  0
  3 13  1  0  0  0  0
  4 21  2  0  0  0  0
  5 12  1  0  0  0  0
  5 16  2  0  0  0  0
  6  7  1  0  0  0  0
  6 18  1  0  0  0  0
  6 35  1  0  0  0  0
  7 21  1  0  0  0  0
  7 36  1  0  0  0  0
  8 10  1  0  0  0  0
  8 12  1  0  0  0  0
  8 15  2  0  0  0  0
  9 11  1  0  0  0  0
  9 14  1  0  0  0  0
  9 17  2  0  0  0  0
 10 16  1  0  0  0  0
 10 18  2  0  0  0  0
 11 19  2  0  0  0  0
 12 20  2  0  0  0  0
 13 14  2  0  0  0  0
 13 21  1  0  0  0  0
 15 22  1  0  0  0  0
 15 26  1  0  0  0  0
 17 23  1  0  0  0  0
 17 27  1  0  0  0  0
 18 28  1  0  0  0  0
 19 24  1  0  0  0  0
 19 29  1  0  0  0  0
 20 25  1  0  0  0  0
 20 30  1  0  0  0  0
 22 25  2  0  0  0  0
 22 31  1  0  0  0  0
 23 24  2  0  0  0  0
 23 32  1  0  0  0  0
 24 33  1  0  0  0  0
 25 34  1  0  0  0  0
M  END
> <Activity>
2.137

> <Mapped(file=504701.csv.activities,property=Cached(PUBCHEM_COMPOUND_CID))>
2.137

> <PUBCHEM_ATOM_DEF_STEREO_COUNT>
0

> <PUBCHEM_ATOM_UDEF_STEREO_COUNT>
0

> <PUBCHEM_BONDANNOTATIONS>
11  19  8
12  20  8
13  14  8
15  22  8
17  23  8
19  24  8
20  25  8
22  25  8
23  24  8
3  11  8
3  13  8
8  12  8
8  15  8
9  11  8
9  14  8
9  17  8

> <PUBCHEM_BOND_DEF_STEREO_COUNT>
1

> <PUBCHEM_BOND_UDEF_STEREO_COUNT>
0

> <PUBCHEM_CACTVS_COMPLEXITY>
597

> <PUBCHEM_CACTVS_HBOND_ACCEPTOR>
4

> <PUBCHEM_CACTVS_HBOND_DONOR>
2

> <PUBCHEM_CACTVS_ROTATABLE_BOND>
3

> <PUBCHEM_CACTVS_SUBSKEYS>
AAADccB7IABGAAAAAAAAAAAAAAAAASIAAAAwYAAAAAAAAEgB9AAAHgYYAAAADArB2CQwwcJiAAisAiV2VACDAIAkDhJaqJkgZtgIIDKhl5GAIQBggAAozQcYiICOAAAAAAAGAAAAAAAAAAwAAAAAAAAAAA==

> <PUBCHEM_CACTVS_TAUTO_COUNT>
4

> <PUBCHEM_CACTVS_TPSA>
81.7

> <PUBCHEM_COMPONENT_COUNT>
1

> <PUBCHEM_COMPOUND_CANONICALIZED>
1

> <PUBCHEM_COMPOUND_CID>
5521669

> <PUBCHEM_COORDINATE_TYPE>
1
5
255

> <PUBCHEM_EXACT_MASS>
386.999988

> <PUBCHEM_HEAVY_ATOM_COUNT>
25

> <PUBCHEM_ISOTOPIC_ATOM_COUNT>
0

> <PUBCHEM_IUPAC_CAS_NAME>
3-chloro-N'-[(Z)-(2-chloro-3-indolylidene)methyl]-1-benzothiophene-2-carbohydrazide

> <PUBCHEM_IUPAC_INCHI>
InChI=1S/C18H11Cl2N3OS/c19-15-11-6-2-4-8-14(11)25-16(15)18(24)23-21-9-12-10-5-1-3-7-13(10)22-17(12)20/h1-9,21H,(H,23,24)/b12-9-

> <PUBCHEM_IUPAC_INCHIKEY>
OKJHRCBDHVCYRW-XFXZXTDPSA-N

> <PUBCHEM_IUPAC_NAME>
3-chloro-N'-[(Z)-(2-chloroindol-3-ylidene)methyl]-1-benzothiophene-2-carbohydrazide

> <PUBCHEM_IUPAC_OPENEYE_NAME>
3-chloro-N'-[(Z)-(2-chloroindol-3-ylidene)methyl]benzothiophene-2-carbohydrazide

> <PUBCHEM_IUPAC_SYSTEMATIC_NAME>
3-chloranyl-N'-[(Z)-(2-chloranylindol-3-ylidene)methyl]-1-benzothiophene-2-carbohydrazide

> <PUBCHEM_IUPAC_TRADITIONAL_NAME>
3-chloro-N'-[(Z)-(2-chloroindol-3-ylidene)methyl]benzothiophene-2-carbohydrazide

> <PUBCHEM_MOLECULAR_FORMULA>
C18H11Cl2N3OS

> <PUBCHEM_MOLECULAR_WEIGHT>
388.27044

> <PUBCHEM_MONOISOTOPIC_WEIGHT>
386.999988

> <PUBCHEM_OPENEYE_CAN_SMILES>
C1=CC=C2C(=C1)C(=CNNC(=O)C3=C(C4=CC=CC=C4S3)Cl)C(=N2)Cl

> <PUBCHEM_OPENEYE_ISO_SMILES>
C1=CC=C2C(=C1)/C(=C/NNC(=O)C3=C(C4=CC=CC=C4S3)Cl)/C(=N2)Cl

> <PUBCHEM_TOTAL_CHARGE>
0

> <PUBCHEM_XLOGP3_AA>
5.5

$$$$
Written by BCL::WriteToMDL,3244400
MBcorina  10171218483D 1   1.00000     0.00000 
CORINA 3.49 0026  01.06.2011
 40 42  0  0  0  0  0  0  0  0999 V2000
   -0.2117    1.6276    1.1775 S   0  0  0  1  0  2  0  0  0  0  0  0
   -6.2980    1.3685   -0.2115 O   0  0  0  1  0  2  0  0  0  0  0  0
  -11.4274    2.2922   -0.4677 O   0  0  0  1  0  2  0  0  0  0  0  0
   -3.4569   -2.0033    0.1123 O   0  0  0  1  0  1  0  0  0  0  0  0
   -2.4203   -0.0414    0.0259 N   0  0  0  1  0  3  0  0  0  0  0  0
   -5.1126    1.1401   -0.1517 N   0  0  0  1  0  2  0  0  0  0  0  0
   -8.4998    0.1317   -0.2165 C   0  0  0  1  0  3  0  0  0  0  0  0
   -7.0258    0.2387   -0.1667 C   0  0  0  1  0  3  0  0  0  0  0  0
   -1.1628   -0.6568   -0.0044 C   0  0  0  1  0  3  0  0  0  0  0  0
   -4.8691   -0.1448   -0.0598 C   0  0  0  1  0  3  0  0  0  0  0  0
   -6.1327   -0.7913   -0.0665 C   0  0  0  1  0  3  0  0  0  0  0  0
   -9.2818    1.2818   -0.3201 C   0  0  0  1  0  3  0  0  0  0  0  0
   -9.1132   -1.1212   -0.1657 C   0  0  0  1  0  3  0  0  0  0  0  0
   -3.5387   -0.7936    0.0318 C   0  0  0  1  0  3  0  0  0  0  0  0
   -0.0451    0.0093    0.5008 C   0  0  0  1  0  3  0  0  0  0  0  0
  -10.6617    1.1739   -0.3667 C   0  0  0  1  0  3  0  0  0  0  0  0
   -1.0252   -1.9319   -0.5311 C   0  0  0  1  0  3  0  0  0  0  0  0
  -10.4887   -1.2175   -0.2128 C   0  0  0  1  0  3  0  0  0  0  0  0
  -11.2631   -0.0759   -0.3098 C   0  0  0  1  0  3  0  0  0  0  0  0
    1.1977   -0.6067    0.4679 C   0  0  0  1  0  3  0  0  0  0  0  0
    0.2175   -2.5379   -0.5596 C   0  0  0  1  0  3  0  0  0  0  0  0
    1.3258   -1.8762   -0.0640 C   0  0  0  1  0  3  0  0  0  0  0  0
    1.4827    2.0362    1.6801 C   0  0  0  1  0  4  0  0  0  0  0  0
  -12.8437    2.1070   -0.5107 C   0  0  0  1  0  4  0  0  0  0  0  0
   -6.3400   -1.8495   -0.0061 H   0  0  0  1  0  1  0  0  0  0  0  0
   -8.8127    2.2537   -0.3636 H   0  0  0  1  0  1  0  0  0  0  0  0
   -8.5114   -2.0148   -0.0899 H   0  0  0  1  0  1  0  0  0  0  0  0
   -2.4865    0.9262    0.0426 H   0  0  0  1  0  1  0  0  0  0  0  0
   -1.8886   -2.4520   -0.9188 H   0  0  0  1  0  1  0  0  0  0  0  0
  -10.9622   -2.1874   -0.1738 H   0  0  0  1  0  1  0  0  0  0  0  0
  -12.3394   -0.1573   -0.3459 H   0  0  0  1  0  1  0  0  0  0  0  0
    2.0649   -0.0944    0.8575 H   0  0  0  1  0  1  0  0  0  0  0  0
    0.3225   -3.5313   -0.9700 H   0  0  0  1  0  1  0  0  0  0  0  0
    2.2939   -2.3543   -0.0889 H   0  0  0  1  0  1  0  0  0  0  0  0
    2.1362    2.0120    0.8080 H   0  0  0  1  0  1  0  0  0  0  0  0
    1.5008    3.0333    2.1201 H   0  0  0  1  0  1  0  0  0  0  0  0
    1.8294    1.3088    2.4141 H   0  0  0  1  0  1  0  0  0  0  0  0
  -13.1727    1.6080    0.4008 H   0  0  0  1  0  1  0  0  0  0  0  0
  -13.3347    3.0768   -0.5916 H   0  0  0  1  0  1  0  0  0  0  0  0
  -13.1040    1.4948   -1.3742 H   0  0  0  1  0  1  0  0  0  0  0  0
  1 15  1  0  0  0  0
  1 23  1  0  0  0  0
  2  6  1  0  0  0  0
  2  8  1  0  0  0  0
  3 16  1  0  0  0  0
  3 24  1  0  0  0  0
  4 14  2  0  0  0  0
  5  9  1  0  0  0  0
  5 14  1  0  0  0  0
  5 28  1  0  0  0  0
  6 10  2  0  0  0  0
  7  8  1  0  0  0  0
  7 12  2  0  0  0  0
  7 13  1  0  0  0  0
  8 11  2  0  0  0  0
  9 15  1  0  0  0  0
  9 17  2  0  0  0  0
 10 11  1  0  0  0  0
 10 14  1  0  0  0  0
 11 25  1  0  0  0  0
 12 16  1  0  0  0  0
 12 26  1  0  0  0  0
 13 18  2  0  0  0  0
 13 27  1  0  0  0  0
 15 20  2  0  0  0  0
 16 19  2  0  0  0  0
 17 21  1  0  0  0  0
 17 29  1  0  0  0  0
 18 19  1  0  0  0  0
 18 30  1  0  0  0  0
 19 31  1  0  0  0  0
 20 22  1  0  0  0  0
 20 32  1  0  0  0  0
 21 22  2  0  0  0  0
 21 33  1  0  0  0  0
 22 34  1  0  0  0  0
 23 35  1  0  0  0  0
 23 36  1  0  0  0  0
 23 37  1  0  0  0  0
 24 38  1  0  0  0  0
 24 39  1  0  0  0  0
 24 40  1  0  0  0  0
M  END
> <Activity>
1.912

> <Mapped(file=504701.csv.activities,property=Cached(PUBCHEM_COMPOUND_CID))>
1.912

> <PUBCHEM_ATOM_DEF_STEREO_COUNT>
0

> <PUBCHEM_ATOM_UDEF_STEREO_COUNT>
0

> <PUBCHEM_BONDANNOTATIONS>
10  11  8
12  16  8
13  18  8
15  20  8
16  19  8
17  21  8
18  19  8
2  6  8
2  8  8
20  22  8
21  22  8
6  10  8
7  12  8
7  13  8
8  11  8
9  15  8
9  17  8

> <PUBCHEM_BOND_DEF_STEREO_COUNT>
0

> <PUBCHEM_BOND_UDEF_STEREO_COUNT>
0

> <PUBCHEM_CACTVS_COMPLEXITY>
423

> <PUBCHEM_CACTVS_HBOND_ACCEPTOR>
5

> <PUBCHEM_CACTVS_HBOND_DONOR>
1

> <PUBCHEM_CACTVS_ROTATABLE_BOND>
5

> <PUBCHEM_CACTVS_SUBSKEYS>
AAADceB7MABAAAAAAAAAAAAAAAAAAWAAAAAwYAAAAAAAAAAB0AAAHgQUAAAADAyB3gKyx5LQBAipA6VyUgCCCAAnKhAomD22bNoMZjrktZuUMahm1BnI6cf/yLCOAAABAAAAAQAAAAIAAAACAAAAAAAAAA==

> <PUBCHEM_CACTVS_TAUTO_COUNT>
2

> <PUBCHEM_CACTVS_TPSA>
89.7

> <PUBCHEM_COMPONENT_COUNT>
1

> <PUBCHEM_COMPOUND_CANONICALIZED>
1

> <PUBCHEM_COMPOUND_CID>
3244400

> <PUBCHEM_COORDINATE_TYPE>
1
5
255

> <PUBCHEM_EXACT_MASS>
340.088163

> <PUBCHEM_HEAVY_ATOM_COUNT>
24

> <PUBCHEM_ISOTOPIC_ATOM_COUNT>
0

> <PUBCHEM_IUPAC_CAS_NAME>
5-(3-methoxyphenyl)-N-[2-(methylthio)phenyl]-3-isoxazolecarboxamide

> <PUBCHEM_IUPAC_INCHI>
InChI=1S/C18H16N2O3S/c1-22-13-7-5-6-12(10-13)16-11-15(20-23-16)18(21)19-14-8-3-4-9-17(14)24-2/h3-11H,1-2H3,(H,19,21)

> <PUBCHEM_IUPAC_INCHIKEY>
JCZCHJNFGCTGQF-UHFFFAOYSA-N

> <PUBCHEM_IUPAC_NAME>
5-(3-methoxyphenyl)-N-(2-methylsulfanylphenyl)-1,2-oxazole-3-carboxamide

> <PUBCHEM_IUPAC_OPENEYE_NAME>
5-(3-methoxyphenyl)-N-(2-methylsulfanylphenyl)isoxazole-3-carboxamide

> <PUBCHEM_IUPAC_SYSTEMATIC_NAME>
5-(3-methoxyphenyl)-N-(2-methylsulfanylphenyl)-1,2-oxazole-3-carboxamide

> <PUBCHEM_IUPAC_TRADITIONAL_NAME>
5-(3-methoxyphenyl)-N-[2-(methylthio)phenyl]isoxazole-3-carboxamide

> <PUBCHEM_MOLECULAR_FORMULA>
C18H16N2O3S

> <PUBCHEM_MOLECULAR_WEIGHT>
340.39624

> <PUBCHEM_MONOISOTOPIC_WEIGHT>
340.088163

> <PUBCHEM_OPENEYE_CAN_SMILES>
COC1=CC=CC(=C1)C2=CC(=NO2)C(=O)NC3=CC=CC=C3SC

> <PUBCHEM_OPENEYE_ISO_SMILES>
COC1=CC=CC(=C1)C2=CC(=NO2)C(=O)NC3=CC=CC=C3SC

> <PUBCHEM_TOTAL_CHARGE>
0

> <PUBCHEM_XLOGP3_AA>
3.7

$$$$
Written by BCL::WriteToMDL,24747492
MBcorina  10171218483D 1   1.00000     0.00000 
CORINA 3.49 0026  01.06.2011
 62 65  0  0  0  0  0  0  0  0999 V2000
   -1.8656  -11.9856    1.5256 Cl  0  0  0  1  0  1  0  0  0  0  0  0
    2.3685  -10.7948    1.7033 F   0  0  0  1  0  1  0  0  0  0  0  0
    0.7298  -11.4306    0.2439 F   0  0  0  1  0  1  0  0  0  0  0  0
    0.9459  -12.4956    2.2535 F   0  0  0  1  0  1  0  0  0  0  0  0
    1.8847   -5.1467    1.1577 O   0  0  0  1  0  1  0  0  0  0  0  0
    1.8752   -6.9104    2.4467 O   0  0  0  1  0  1  0  0  0  0  0  0
   -0.0702    0.9590   -0.7416 O   0  0  0  1  0  2  0  0  0  0  0  0
   -2.4136   -0.4847   -0.6362 O   0  0  0  1  0  2  0  0  0  0  0  0
    2.9689   -3.2533    1.0327 N   0  0  0  1  0  3  0  0  0  0  0  0
    0.2322   -7.0210    3.9335 N   0  0  0  1  0  3  0  0  0  0  0  0
    2.9836   -4.5983    3.1393 C   0  0  0  1  0  4  0  0  0  0  0  0
    3.5396   -3.3345    3.7879 C   0  0  0  1  0  4  0  0  0  0  0  0
    1.7679   -5.0819    3.9350 C   0  0  0  1  0  4  0  0  0  0  0  0
    4.5354   -2.6754    2.8286 C   0  0  0  1  0  4  0  0  0  0  0  0
    2.5892   -4.3333    1.7172 C   0  0  0  1  0  3  0  0  0  0  0  0
    3.7812   -2.1807    1.5941 C   0  0  0  1  0  4  0  0  0  0  0  0
    0.6508   -4.0445    3.8059 C   0  0  0  1  0  4  0  0  0  0  0  0
    2.4387   -2.3724    4.1161 C   0  0  0  1  0  3  0  0  0  0  0  0
    1.1808   -2.6776    4.1285 C   0  0  0  1  0  3  0  0  0  0  0  0
    1.2966   -6.4031    3.3842 C   0  0  0  1  0  3  0  0  0  0  0  0
    2.5503   -3.1413   -0.3668 C   0  0  0  1  0  4  0  0  0  0  0  0
    1.2243   -2.4288   -0.4390 C   0  0  0  1  0  3  0  0  0  0  0  0
   -0.2653   -8.1982    3.3626 C   0  0  0  1  0  3  0  0  0  0  0  0
    1.1868   -1.0520   -0.5582 C   0  0  0  1  0  3  0  0  0  0  0  0
    0.0482   -3.1539   -0.3916 C   0  0  0  1  0  3  0  0  0  0  0  0
   -0.0315   -0.3953   -0.6248 C   0  0  0  1  0  3  0  0  0  0  0  0
   -1.1707   -2.5049   -0.4574 C   0  0  0  1  0  3  0  0  0  0  0  0
    0.6052   -9.1125    2.7845 C   0  0  0  1  0  3  0  0  0  0  0  0
   -1.6298   -8.4564    3.3785 C   0  0  0  1  0  3  0  0  0  0  0  0
   -1.2154   -1.1247   -0.5713 C   0  0  0  1  0  3  0  0  0  0  0  0
    0.1117  -10.2736    2.2221 C   0  0  0  1  0  3  0  0  0  0  0  0
   -2.1179   -9.6188    2.8150 C   0  0  0  1  0  3  0  0  0  0  0  0
   -1.2486  -10.5258    2.2342 C   0  0  0  1  0  3  0  0  0  0  0  0
    1.0559  -11.2664    1.5945 C   0  0  0  1  0  4  0  0  0  0  0  0
    1.1841    1.6421   -0.7901 C   0  0  0  1  0  4  0  0  0  0  0  0
   -3.5874   -1.2975   -0.5754 C   0  0  0  1  0  4  0  0  0  0  0  0
    3.7499   -5.3734    3.1479 H   0  0  0  1  0  1  0  0  0  0  0  0
    4.0535   -3.6011    4.7115 H   0  0  0  1  0  1  0  0  0  0  0  0
    2.0401   -5.1971    4.9841 H   0  0  0  1  0  1  0  0  0  0  0  0
    5.0165   -1.8323    3.3245 H   0  0  0  1  0  1  0  0  0  0  0  0
    5.2895   -3.4031    2.5286 H   0  0  0  1  0  1  0  0  0  0  0  0
    4.4974   -1.8411    0.8458 H   0  0  0  1  0  1  0  0  0  0  0  0
    3.1355   -1.3487    1.8752 H   0  0  0  1  0  1  0  0  0  0  0  0
    0.2660   -4.0520    2.7861 H   0  0  0  1  0  1  0  0  0  0  0  0
   -0.1549   -4.2925    4.4969 H   0  0  0  1  0  1  0  0  0  0  0  0
    2.7131   -1.3564    4.3588 H   0  0  0  1  0  1  0  0  0  0  0  0
    0.4720   -1.9045    4.3857 H   0  0  0  1  0  1  0  0  0  0  0  0
    3.2970   -2.5769   -0.9253 H   0  0  0  1  0  1  0  0  0  0  0  0
    2.4512   -4.1378   -0.7973 H   0  0  0  1  0  1  0  0  0  0  0  0
   -0.1892   -6.6499    4.7245 H   0  0  0  1  0  1  0  0  0  0  0  0
    2.1071   -0.4883   -0.5992 H   0  0  0  1  0  1  0  0  0  0  0  0
    0.0817   -4.2297   -0.3032 H   0  0  0  1  0  1  0  0  0  0  0  0
   -2.0880   -3.0737   -0.4206 H   0  0  0  1  0  1  0  0  0  0  0  0
    1.6670   -8.9158    2.7741 H   0  0  0  1  0  1  0  0  0  0  0  0
   -2.3085   -7.7489    3.8315 H   0  0  0  1  0  1  0  0  0  0  0  0
   -3.1789   -9.8202    2.8274 H   0  0  0  1  0  1  0  0  0  0  0  0
    1.0106    2.7141   -0.8838 H   0  0  0  1  0  1  0  0  0  0  0  0
    1.7419    1.4429    0.1249 H   0  0  0  1  0  1  0  0  0  0  0  0
    1.7564    1.2903   -1.6484 H   0  0  0  1  0  1  0  0  0  0  0  0
   -3.5856   -2.0011   -1.4079 H   0  0  0  1  0  1  0  0  0  0  0  0
   -3.5999   -1.8479    0.3654 H   0  0  0  1  0  1  0  0  0  0  0  0
   -4.4719   -0.6636   -0.6373 H   0  0  0  1  0  1  0  0  0  0  0  0
  1 33  1  0  0  0  0
  2 34  1  0  0  0  0
  3 34  1  0  0  0  0
  4 34  1  0  0  0  0
  5 15  2  0  0  0  0
  6 20  2  0  0  0  0
  7 26  1  0  0  0  0
  7 35  1  0  0  0  0
  8 30  1  0  0  0  0
  8 36  1  0  0  0  0
  9 15  1  0  0  0  0
  9 16  1  0  0  0  0
  9 21  1  0  0  0  0
 10 20  1  0  0  0  0
 10 23  1  0  0  0  0
 10 50  1  0  0  0  0
 11 12  1  0  0  0  0
 11 13  1  0  0  0  0
 11 15  1  0  0  0  0
 11 37  1  0  0  0  0
 12 14  1  0  0  0  0
 12 18  1  0  0  0  0
 12 38  1  0  0  0  0
 13 17  1  0  0  0  0
 13 20  1  0  0  0  0
 13 39  1  0  0  0  0
 14 16  1  0  0  0  0
 14 40  1  0  0  0  0
 14 41  1  0  0  0  0
 16 42  1  0  0  0  0
 16 43  1  0  0  0  0
 17 19  1  0  0  0  0
 17 44  1  0  0  0  0
 17 45  1  0  0  0  0
 18 19  2  0  0  0  0
 18 46  1  0  0  0  0
 19 47  1  0  0  0  0
 21 22  1  0  0  0  0
 21 48  1  0  0  0  0
 21 49  1  0  0  0  0
 22 24  2  0  0  0  0
 22 25  1  0  0  0  0
 23 28  2  0  0  0  0
 23 29  1  0  0  0  0
 24 26  1  0  0  0  0
 24 51  1  0  0  0  0
 25 27  2  0  0  0  0
 25 52  1  0  0  0  0
 26 30  2  0  0  0  0
 27 30  1  0  0  0  0
 27 53  1  0  0  0  0
 28 31  1  0  0  0  0
 28 54  1  0  0  0  0
 29 32  2  0  0  0  0
 29 55  1  0  0  0  0
 31 33  2  0  0  0  0
 31 34  1  0  0  0  0
 32 33  1  0  0  0  0
 32 56  1  0  0  0  0
 35 57  1  0  0  0  0
 35 58  1  0  0  0  0
 35 59  1  0  0  0  0
 36 60  1  0  0  0  0
 36 61  1  0  0  0  0
 36 62  1  0  0  0  0
M  END
> <Activity>
0.07096

> <Mapped(file=504701.csv.activities,property=Cached(PUBCHEM_COMPOUND_CID))>
0.07096

> <PUBCHEM_ATOM_DEF_STEREO_COUNT>
3

> <PUBCHEM_ATOM_UDEF_STEREO_COUNT>
0

> <PUBCHEM_BONDANNOTATIONS>
11  37  6
12  38  6
13  20  5
22  24  8
22  25  8
23  28  8
23  29  8
24  26  8
25  27  8
26  30  8
27  30  8
28  31  8
29  32  8
31  33  8
32  33  8

> <PUBCHEM_BOND_DEF_STEREO_COUNT>
0

> <PUBCHEM_BOND_UDEF_STEREO_COUNT>
0

> <PUBCHEM_CACTVS_COMPLEXITY>
826

> <PUBCHEM_CACTVS_HBOND_ACCEPTOR>
7

> <PUBCHEM_CACTVS_HBOND_DONOR>
1

> <PUBCHEM_CACTVS_ROTATABLE_BOND>
6

> <PUBCHEM_CACTVS_SUBSKEYS>
AAADceB7OYAEAAAAAAAAAAAAAAAAAAAAAAA8YIEAAAAAAACBQAAAHwIQAAAADQ7BmDYyxoPABACIAiVSUACCCAAhJwAIiAEO7ogNJjLFs5uEMCpk1hHK6Ae92RIOoABBQAABQABAAIKAAAKAAAAAAAAAAA==

> <PUBCHEM_CACTVS_TAUTO_COUNT>
6

> <PUBCHEM_CACTVS_TPSA>
67.9

> <PUBCHEM_COMPONENT_COUNT>
1

> <PUBCHEM_COMPOUND_CANONICALIZED>
1

> <PUBCHEM_COMPOUND_CID>
24747492

> <PUBCHEM_COORDINATE_TYPE>
1
5
255

> <PUBCHEM_EXACT_MASS>
522.15332

> <PUBCHEM_HEAVY_ATOM_COUNT>
36

> <PUBCHEM_ISOTOPIC_ATOM_COUNT>
0

> <PUBCHEM_IUPAC_CAS_NAME>
(4aS,8R,8aS)-N-[4-chloro-3-(trifluoromethyl)phenyl]-2-[(3,4-dimethoxyphenyl)methyl]-1-oxo-3,4,4a,7,8,8a-hexahydroisoquinoline-8-carboxamide

> <PUBCHEM_IUPAC_INCHI>
InChI=1S/C26H26ClF3N2O4/c1-35-21-9-6-15(12-22(21)36-2)14-32-11-10-16-4-3-5-18(23(16)25(32)34)24(33)31-17-7-8-20(27)19(13-17)26(28,29)30/h3-4,6-9,12-13,16,18,23H,5,10-11,14H2,1-2H3,(H,31,33)/t16-,18-,23+/m1/s1

> <PUBCHEM_IUPAC_INCHIKEY>
CKTQSZLJZDVMBM-UQNRQAKVSA-N

> <PUBCHEM_IUPAC_NAME>
(4aS,8R,8aS)-N-[4-chloro-3-(trifluoromethyl)phenyl]-2-[(3,4-dimethoxyphenyl)methyl]-1-oxo-3,4,4a,7,8,8a-hexahydroisoquinoline-8-carboxamide

> <PUBCHEM_IUPAC_OPENEYE_NAME>
(4aS,8R,8aS)-N-[4-chloro-3-(trifluoromethyl)phenyl]-2-[(3,4-dimethoxyphenyl)methyl]-1-oxo-3,4,4a,7,8,8a-hexahydroisoquinoline-8-carboxamide

> <PUBCHEM_IUPAC_SYSTEMATIC_NAME>
(4aS,8R,8aS)-N-[4-chloranyl-3-(trifluoromethyl)phenyl]-2-[(3,4-dimethoxyphenyl)methyl]-1-oxidanylidene-3,4,4a,7,8,8a-hexahydroisoquinoline-8-carboxamide

> <PUBCHEM_IUPAC_TRADITIONAL_NAME>
(4aS,8R,8aS)-N-[4-chloro-3-(trifluoromethyl)phenyl]-1-keto-2-veratryl-3,4,4a,7,8,8a-hexahydroisoquinoline-8-carboxamide

> <PUBCHEM_MOLECULAR_FORMULA>
C26H26ClF3N2O4

> <PUBCHEM_MOLECULAR_WEIGHT>
522.94385

> <PUBCHEM_MONOISOTOPIC_WEIGHT>
522.15332

> <PUBCHEM_OPENEYE_CAN_SMILES>
COC1=C(C=C(C=C1)CN2CCC3C=CCC(C3C2=O)C(=O)NC4=CC(=C(C=C4)Cl)C(F)(F)F)OC

> <PUBCHEM_OPENEYE_ISO_SMILES>
COC1=C(C=C(C=C1)CN2CC[C@H]3C=CC[C@H]([C@H]3C2=O)C(=O)NC4=CC(=C(C=C4)Cl)C(F)(F)F)OC

> <PUBCHEM_TOTAL_CHARGE>
0

> <PUBCHEM_XLOGP3_AA>
4.6

$$$$
Written by BCL::WriteToMDL,9662989
MBcorina  10171218483D 1   1.00000     0.00000 
CORINA 3.49 0026  01.06.2011
 50 53  0  0  0  0  0  0  0  0999 V2000
   -5.6664   -7.5877    8.2470 Br  0  0  0  1  0  1  0  0  0  0  0  0
   -0.0218    1.7541    0.0117 S   0  0  0  1  0  2  0  0  0  0  0  0
   -2.5254   -2.2575    1.8441 O   0  0  0  1  0  1  0  0  0  0  0  0
   -1.0480   -2.0804    0.0000 O   0  0  0  1  0  1  0  0  0  0  0  0
   -4.6326   -0.0892   -4.1498 N   0  0  0  1  0  3  0  0  0  0  0  0
   -2.4136   -0.3275    0.0230 N   0  0  0  1  0  3  0  0  0  0  0  0
   -4.7047   -2.6470    1.6951 N   0  0  0  1  0  3  0  0  0  0  0  0
   -4.6802   -3.4622    2.8342 N   0  0  0  1  0  2  0  0  0  0  0  0
   -3.5921   -2.0696   -1.2252 C   0  0  0  1  0  4  0  0  0  0  0  0
   -3.7421   -1.1991   -2.4462 C   0  0  0  1  0  3  0  0  0  0  0  0
   -3.5952   -1.1935    0.0292 C   0  0  0  1  0  4  0  0  0  0  0  0
   -2.6663   -0.5089   -3.1618 C   0  0  0  1  0  3  0  0  0  0  0  0
   -3.2833    0.1748   -4.2256 C   0  0  0  1  0  3  0  0  0  0  0  0
   -4.8870   -0.9089   -3.0841 C   0  0  0  1  0  3  0  0  0  0  0  0
   -1.2839   -0.4235   -2.9876 C   0  0  0  1  0  3  0  0  0  0  0  0
   -3.5689   -2.0705    1.2544 C   0  0  0  1  0  3  0  0  0  0  0  0
   -2.5028    0.9313   -5.0933 C   0  0  0  1  0  3  0  0  0  0  0  0
   -0.5361    0.3256   -3.8520 C   0  0  0  1  0  3  0  0  0  0  0  0
   -1.1401    1.0025   -4.9024 C   0  0  0  1  0  3  0  0  0  0  0  0
   -1.1802   -0.8706    0.0082 C   0  0  0  1  0  3  0  0  0  0  0  0
    0.0021   -0.0041    0.0020 C   0  0  0  1  0  3  0  0  0  0  0  0
    1.2993   -0.4332   -0.0127 C   0  0  0  1  0  3  0  0  0  0  0  0
    2.2121    0.5948   -0.0159 C   0  0  0  1  0  3  0  0  0  0  0  0
   -5.7737   -4.0173    3.2584 C   0  0  0  1  0  3  0  0  0  0  0  0
    1.6829    1.8238   -0.0042 C   0  0  0  1  0  3  0  0  0  0  0  0
   -5.7479   -4.8755    4.4574 C   0  0  0  1  0  3  0  0  0  0  0  0
   -6.9233   -5.4745    4.9168 C   0  0  0  1  0  3  0  0  0  0  0  0
   -4.5469   -5.0976    5.1355 C   0  0  0  1  0  3  0  0  0  0  0  0
   -6.8921   -6.2763    6.0385 C   0  0  0  1  0  3  0  0  0  0  0  0
   -4.5296   -5.9016    6.2558 C   0  0  0  1  0  3  0  0  0  0  0  0
   -5.6993   -6.4877    6.7092 C   0  0  0  1  0  3  0  0  0  0  0  0
   -4.4216   -2.7751   -1.1778 H   0  0  0  1  0  1  0  0  0  0  0  0
   -2.6517   -2.6178   -1.2831 H   0  0  0  1  0  1  0  0  0  0  0  0
   -4.4957   -0.5794    0.0412 H   0  0  0  1  0  1  0  0  0  0  0  0
   -5.8643   -1.2690   -2.7985 H   0  0  0  1  0  1  0  0  0  0  0  0
   -5.3033    0.2577   -4.7586 H   0  0  0  1  0  1  0  0  0  0  0  0
   -2.5190    0.6367    0.0295 H   0  0  0  1  0  1  0  0  0  0  0  0
   -0.8072   -0.9467   -2.1718 H   0  0  0  1  0  1  0  0  0  0  0  0
   -2.9633    1.4609   -5.9142 H   0  0  0  1  0  1  0  0  0  0  0  0
    0.5333    0.3914   -3.7168 H   0  0  0  1  0  1  0  0  0  0  0  0
   -0.5357    1.5902   -5.5775 H   0  0  0  1  0  1  0  0  0  0  0  0
   -5.5390   -2.4974    1.2235 H   0  0  0  1  0  1  0  0  0  0  0  0
    1.5797   -1.4762   -0.0206 H   0  0  0  1  0  1  0  0  0  0  0  0
    3.2783    0.4230   -0.0266 H   0  0  0  1  0  1  0  0  0  0  0  0
   -6.7027   -3.8507    2.7334 H   0  0  0  1  0  1  0  0  0  0  0  0
    2.2581    2.7379   -0.0051 H   0  0  0  1  0  1  0  0  0  0  0  0
   -7.8544   -5.3098    4.3950 H   0  0  0  1  0  1  0  0  0  0  0  0
   -3.6338   -4.6410    4.7829 H   0  0  0  1  0  1  0  0  0  0  0  0
   -7.8001   -6.7400    6.3947 H   0  0  0  1  0  1  0  0  0  0  0  0
   -3.6018   -6.0742    6.7810 H   0  0  0  1  0  1  0  0  0  0  0  0
  1 31  1  0  0  0  0
  2 21  1  0  0  0  0
  2 25  1  0  0  0  0
  3 16  2  0  0  0  0
  4 20  2  0  0  0  0
  5 13  1  0  0  0  0
  5 14  1  0  0  0  0
  5 36  1  0  0  0  0
  6 11  1  0  0  0  0
  6 20  1  0  0  0  0
  6 37  1  0  0  0  0
  7  8  1  0  0  0  0
  7 16  1  0  0  0  0
  7 42  1  0  0  0  0
  8 24  2  0  0  0  0
  9 10  1  0  0  0  0
  9 11  1  0  0  0  0
  9 32  1  0  0  0  0
  9 33  1  0  0  0  0
 10 12  1  0  0  0  0
 10 14  2  0  0  0  0
 11 16  1  0  0  0  0
 11 34  1  0  0  0  0
 12 13  1  0  0  0  0
 12 15  2  0  0  0  0
 13 17  2  0  0  0  0
 14 35  1  0  0  0  0
 15 18  1  0  0  0  0
 15 38  1  0  0  0  0
 17 19  1  0  0  0  0
 17 39  1  0  0  0  0
 18 19  2  0  0  0  0
 18 40  1  0  0  0  0
 19 41  1  0  0  0  0
 20 21  1  0  0  0  0
 21 22  2  0  0  0  0
 22 23  1  0  0  0  0
 22 43  1  0  0  0  0
 23 25  2  0  0  0  0
 23 44  1  0  0  0  0
 24 26  1  0  0  0  0
 24 45  1  0  0  0  0
 25 46  1  0  0  0  0
 26 27  2  0  0  0  0
 26 28  1  0  0  0  0
 27 29  1  0  0  0  0
 27 47  1  0  0  0  0
 28 30  2  0  0  0  0
 28 48  1  0  0  0  0
 29 31  2  0  0  0  0
 29 49  1  0  0  0  0
 30 31  1  0  0  0  0
 30 50  1  0  0  0  0
M  END
> <Activity>
2.99

> <Mapped(file=504701.csv.activities,property=Cached(PUBCHEM_COMPOUND_CID))>
2.99

> <PUBCHEM_ATOM_DEF_STEREO_COUNT>
0

> <PUBCHEM_ATOM_UDEF_STEREO_COUNT>
1

> <PUBCHEM_BONDANNOTATIONS>
10  12  8
10  14  8
12  13  8
12  15  8
13  17  8
15  18  8
17  19  8
18  19  8
2  21  8
2  25  8
21  22  8
22  23  8
23  25  8
26  27  8
26  28  8
27  29  8
28  30  8
29  31  8
30  31  8
5  13  8
5  14  8
11  9  3

> <PUBCHEM_BOND_DEF_STEREO_COUNT>
1

> <PUBCHEM_BOND_UDEF_STEREO_COUNT>
0

> <PUBCHEM_CACTVS_COMPLEXITY>
656

> <PUBCHEM_CACTVS_HBOND_ACCEPTOR>
4

> <PUBCHEM_CACTVS_HBOND_DONOR>
3

> <PUBCHEM_CACTVS_ROTATABLE_BOND>
7

> <PUBCHEM_CACTVS_SUBSKEYS>
AAADceB7sABAEAAAAAAAAAAAAAAAAWJAAAAwYAAAAAAAAFgB/AAAHgRYAAABrCjF3gS8wfLrkAisAzV3VACTgKA1CjRa2bm4ZPgIYPLglbGUIQhgngDoy5cYicCOggAAAAACAAAEAAAAAAQAAAAAAAAAAA==

> <PUBCHEM_CACTVS_TAUTO_COUNT>
4

> <PUBCHEM_CACTVS_TPSA>
115

> <PUBCHEM_COMPONENT_COUNT>
1

> <PUBCHEM_COMPOUND_CANONICALIZED>
1

> <PUBCHEM_COMPOUND_CID>
9662989

> <PUBCHEM_COORDINATE_TYPE>
1
5
255

> <PUBCHEM_EXACT_MASS>
494.041209

> <PUBCHEM_HEAVY_ATOM_COUNT>
31

> <PUBCHEM_ISOTOPIC_ATOM_COUNT>
0

> <PUBCHEM_IUPAC_CAS_NAME>
N-[1-[(2E)-2-[(4-bromophenyl)methylidene]hydrazinyl]-3-(1H-indol-3-yl)-1-oxopropan-2-yl]-2-thiophenecarboxamide

> <PUBCHEM_IUPAC_INCHI>
InChI=1S/C23H19BrN4O2S/c24-17-9-7-15(8-10-17)13-26-28-22(29)20(27-23(30)21-6-3-11-31-21)12-16-14-25-19-5-2-1-4-18(16)19/h1-11,13-14,20,25H,12H2,(H,27,30)(H,28,29)/b26-13+

> <PUBCHEM_IUPAC_INCHIKEY>
OHFBWJDDFOHHKS-LGJNPRDNSA-N

> <PUBCHEM_IUPAC_NAME>
N-[1-[(2E)-2-[(4-bromophenyl)methylidene]hydrazinyl]-3-(1H-indol-3-yl)-1-oxopropan-2-yl]thiophene-2-carboxamide

> <PUBCHEM_IUPAC_OPENEYE_NAME>
N-[2-[(2E)-2-[(4-bromophenyl)methylene]hydrazino]-1-(1H-indol-3-ylmethyl)-2-oxo-ethyl]thiophene-2-carboxamide

> <PUBCHEM_IUPAC_SYSTEMATIC_NAME>
N-[1-[(2E)-2-[(4-bromophenyl)methylidene]hydrazinyl]-3-(1H-indol-3-yl)-1-oxidanylidene-propan-2-yl]thiophene-2-carboxamide

> <PUBCHEM_IUPAC_TRADITIONAL_NAME>
N-[2-[(N'E)-N'-(4-bromobenzylidene)hydrazino]-1-(1H-indol-3-ylmethyl)-2-keto-ethyl]thiophene-2-carboxamide

> <PUBCHEM_MOLECULAR_FORMULA>
C23H19BrN4O2S

> <PUBCHEM_MOLECULAR_WEIGHT>
495.39156

> <PUBCHEM_MONOISOTOPIC_WEIGHT>
494.041209

> <PUBCHEM_OPENEYE_CAN_SMILES>
C1=CC=C2C(=C1)C(=CN2)CC(C(=O)NN=CC3=CC=C(C=C3)Br)NC(=O)C4=CC=CS4

> <PUBCHEM_OPENEYE_ISO_SMILES>
C1=CC=C2C(=C1)C(=CN2)CC(C(=O)N/N=C/C3=CC=C(C=C3)Br)NC(=O)C4=CC=CS4

> <PUBCHEM_TOTAL_CHARGE>
0

> <PUBCHEM_XLOGP3_AA>
5

$$$$
Written by BCL::WriteToMDL,5740575
MBcorina  10171218483D 1   1.00000     0.00000 
CORINA 3.49 0026  01.06.2011
 32 34  0  0  0  0  0  0  0  0999 V2000
   -1.9795    5.4023   -2.0325 Cl  0  0  0  1  0  1  0  0  0  0  0  0
    1.3123    5.7529    1.8546 F   0  0  0  1  0  1  0  0  0  0  0  0
    3.5683   -0.4543   -0.0345 O   0  0  0  1  0  1  0  0  0  0  0  0
   -0.0166    1.3750    0.0096 N   0  0  0  1  0  3  0  0  0  0  0  0
    0.0021   -0.0041    0.0020 C   0  0  0  1  0  3  0  0  0  0  0  0
    1.2309   -0.6852   -0.0134 C   0  0  0  1  0  3  0  0  0  0  0  0
    1.1410    2.1049    0.0025 C   0  0  0  1  0  3  0  0  0  0  0  0
    2.4798    0.0991   -0.0215 C   0  0  0  1  0  3  0  0  0  0  0  0
    2.3825    1.5018   -0.0131 C   0  0  0  1  0  3  0  0  0  0  0  0
   -1.1833   -0.7324    0.0099 C   0  0  0  1  0  3  0  0  0  0  0  0
    1.2556   -2.0797   -0.0202 C   0  0  0  1  0  3  0  0  0  0  0  0
    1.0603    3.5660    0.0111 C   0  0  0  1  0  3  0  0  0  0  0  0
   -1.1432   -2.1099    0.0025 C   0  0  0  1  0  3  0  0  0  0  0  0
   -0.2244    5.6435    0.0345 C   0  0  0  1  0  3  0  0  0  0  0  0
   -0.1434    4.1751    0.0258 C   0  0  0  1  0  3  0  0  0  0  0  0
    0.0706   -2.7820   -0.0118 C   0  0  0  1  0  3  0  0  0  0  0  0
   -1.0486    6.3086   -0.8811 C   0  0  0  1  0  3  0  0  0  0  0  0
    0.5182    6.3846    0.9626 C   0  0  0  1  0  3  0  0  0  0  0  0
   -1.1187    7.6866   -0.8661 C   0  0  0  1  0  3  0  0  0  0  0  0
    0.4356    7.7640    0.9629 C   0  0  0  1  0  3  0  0  0  0  0  0
   -0.3772    8.4120    0.0505 C   0  0  0  1  0  3  0  0  0  0  0  0
   -0.8691    1.8378    0.0161 H   0  0  0  1  0  1  0  0  0  0  0  0
    3.2775    2.1062   -0.0191 H   0  0  0  1  0  1  0  0  0  0  0  0
   -2.1335   -0.2191    0.0221 H   0  0  0  1  0  1  0  0  0  0  0  0
    2.1986   -2.6060   -0.0324 H   0  0  0  1  0  1  0  0  0  0  0  0
    1.9644    4.1567    0.0056 H   0  0  0  1  0  1  0  0  0  0  0  0
   -1.0474    3.5843    0.0313 H   0  0  0  1  0  1  0  0  0  0  0  0
   -2.0655   -2.6718    0.0090 H   0  0  0  1  0  1  0  0  0  0  0  0
    0.0863   -3.8619   -0.0174 H   0  0  0  1  0  1  0  0  0  0  0  0
   -1.7538    8.2009   -1.5721 H   0  0  0  1  0  1  0  0  0  0  0  0
    1.0070    8.3375    1.6777 H   0  0  0  1  0  1  0  0  0  0  0  0
   -0.4370    9.4903    0.0560 H   0  0  0  1  0  1  0  0  0  0  0  0
  1 17  1  0  0  0  0
  2 18  1  0  0  0  0
  3  8  2  0  0  0  0
  4  5  1  0  0  0  0
  4  7  1  0  0  0  0
  4 22  1  0  0  0  0
  5  6  1  0  0  0  0
  5 10  2  0  0  0  0
  6  8  1  0  0  0  0
  6 11  2  0  0  0  0
  7  9  2  0  0  0  0
  7 12  1  0  0  0  0
  8  9  1  0  0  0  0
  9 23  1  0  0  0  0
 10 13  1  0  0  0  0
 10 24  1  0  0  0  0
 11 16  1  0  0  0  0
 11 25  1  0  0  0  0
 12 15  2  0  0  0  0
 12 26  1  0  0  0  0
 13 16  2  0  0  0  0
 13 28  1  0  0  0  0
 14 15  1  0  0  0  0
 14 17  1  0  0  0  0
 14 18  2  0  0  0  0
 15 27  1  0  0  0  0
 16 29  1  0  0  0  0
 17 19  2  0  0  0  0
 18 20  1  0  0  0  0
 19 21  1  0  0  0  0
 19 30  1  0  0  0  0
 20 21  2  0  0  0  0
 20 31  1  0  0  0  0
 21 32  1  0  0  0  0
M  END
> <Activity>
3.142

> <Mapped(file=504701.csv.activities,property=Cached(PUBCHEM_COMPOUND_CID))>
3.142

> <PUBCHEM_ATOM_DEF_STEREO_COUNT>
0

> <PUBCHEM_ATOM_UDEF_STEREO_COUNT>
0

> <PUBCHEM_BONDANNOTATIONS>
10  13  8
11  16  8
13  16  8
14  17  8
14  18  8
17  19  8
18  20  8
19  21  8
20  21  8
4  5  8
4  7  8
5  10  8
5  6  8
6  11  8
6  8  8
7  9  8
8  9  8

> <PUBCHEM_BOND_DEF_STEREO_COUNT>
1

> <PUBCHEM_BOND_UDEF_STEREO_COUNT>
0

> <PUBCHEM_CACTVS_COMPLEXITY>
462

> <PUBCHEM_CACTVS_HBOND_ACCEPTOR>
3

> <PUBCHEM_CACTVS_HBOND_DONOR>
1

> <PUBCHEM_CACTVS_ROTATABLE_BOND>
2

> <PUBCHEM_CACTVS_SUBSKEYS>
AAADccB6IQAEAAAAAAAAAAAAAAAAAAAAAAAwYIAAAAAAAACBQAAAHwIQAAAADA6BmCgwwILAAACIAqRSQACCAAAlBwAIiAEAZsgIIDrBl5GEIYhgkADIyccYiICOAAAAAAADAAAAAAAAAAYAAAAAAAAAAA==

> <PUBCHEM_CACTVS_TAUTO_COUNT>
3

> <PUBCHEM_CACTVS_TPSA>
29.1

> <PUBCHEM_COMPONENT_COUNT>
1

> <PUBCHEM_COMPOUND_CANONICALIZED>
1

> <PUBCHEM_COMPOUND_CID>
5740575

> <PUBCHEM_COORDINATE_TYPE>
1
5
255

> <PUBCHEM_EXACT_MASS>
299.05132

> <PUBCHEM_HEAVY_ATOM_COUNT>
21

> <PUBCHEM_ISOTOPIC_ATOM_COUNT>
0

> <PUBCHEM_IUPAC_CAS_NAME>
2-[(E)-2-(2-chloro-6-fluorophenyl)ethenyl]-1H-quinolin-4-one

> <PUBCHEM_IUPAC_INCHI>
InChI=1S/C17H11ClFNO/c18-14-5-3-6-15(19)12(14)9-8-11-10-17(21)13-4-1-2-7-16(13)20-11/h1-10H,(H,20,21)/b9-8+

> <PUBCHEM_IUPAC_INCHIKEY>
IOCDUGJOPNOXSY-CMDGGOBGSA-N

> <PUBCHEM_IUPAC_NAME>
2-[(E)-2-(2-chloro-6-fluorophenyl)ethenyl]-1H-quinolin-4-one

> <PUBCHEM_IUPAC_OPENEYE_NAME>
2-[(E)-2-(2-chloro-6-fluoro-phenyl)vinyl]-1H-quinolin-4-one

> <PUBCHEM_IUPAC_SYSTEMATIC_NAME>
2-[(E)-2-(2-chloranyl-6-fluoranyl-phenyl)ethenyl]-1H-quinolin-4-one

> <PUBCHEM_IUPAC_TRADITIONAL_NAME>
2-[(E)-2-(2-chloro-6-fluoro-phenyl)vinyl]-4-quinolone

> <PUBCHEM_MOLECULAR_FORMULA>
C17H11ClFNO

> <PUBCHEM_MOLECULAR_WEIGHT>
299.726743

> <PUBCHEM_MONOISOTOPIC_WEIGHT>
299.05132

> <PUBCHEM_OPENEYE_CAN_SMILES>
C1=CC=C2C(=C1)C(=O)C=C(N2)C=CC3=C(C=CC=C3Cl)F

> <PUBCHEM_OPENEYE_ISO_SMILES>
C1=CC=C2C(=C1)C(=O)C=C(N2)/C=C/C3=C(C=CC=C3Cl)F

> <PUBCHEM_TOTAL_CHARGE>
0

> <PUBCHEM_XLOGP3_AA>
4.6

$$$$
Written by BCL::WriteToMDL,9607375
MBcorina  10171218483D 1   1.00000     0.00000 
CORINA 3.49 0026  01.06.2011
 41 43  0  0  0  0  0  0  0  0999 V2000
   -0.0172    1.4168    0.0098 S   0  0  0  1  0  4  0  0  0  0  0  0
   -4.0581    4.3306    6.8616 S   0  0  0  1  0  2  0  0  0  0  0  0
    0.0021   -0.0041    0.0020 O   0  0  0  1  0  1  0  0  0  0  0  0
    1.1617    2.2101    0.0028 O   0  0  0  1  0  1  0  0  0  0  0  0
   -7.4257    3.8381   10.6896 O   0  0  0  1  0  2  0  0  0  0  0  0
   -0.9002    1.8797   -1.3124 N   0  0  0  1  0  3  0  0  0  0  0  0
   -4.0175    2.2449    5.4647 N   0  0  0  1  0  2  0  0  0  0  0  0
   -5.5843    2.0157    7.2452 N   0  0  0  1  0  3  0  0  0  0  0  0
   -6.1765    2.6178    8.3631 N   0  0  0  1  0  2  0  0  0  0  0  0
   -0.9297    1.8941    1.4396 C   0  0  0  1  0  3  0  0  0  0  0  0
   -2.3627    2.6439    3.6867 C   0  0  0  1  0  3  0  0  0  0  0  0
   -1.8430    1.0182    1.9983 C   0  0  0  1  0  3  0  0  0  0  0  0
   -0.7258    3.1412    2.0024 C   0  0  0  1  0  3  0  0  0  0  0  0
   -2.5601    1.3865    3.1183 C   0  0  0  1  0  3  0  0  0  0  0  0
   -1.4373    3.5203    3.1225 C   0  0  0  1  0  3  0  0  0  0  0  0
   -3.1304    3.0455    4.8904 C   0  0  0  1  0  3  0  0  0  0  0  0
   -0.7022    3.2084   -1.8968 C   0  0  0  1  0  4  0  0  0  0  0  0
   -1.8794    0.9606   -1.8977 C   0  0  0  1  0  4  0  0  0  0  0  0
   -2.9745    4.2469    5.4746 C   0  0  0  1  0  3  0  0  0  0  0  0
   -4.6304    2.7018    6.5137 C   0  0  0  1  0  3  0  0  0  0  0  0
   -7.6931    2.6028   10.2206 C   0  0  0  1  0  3  0  0  0  0  0  0
   -7.0733    1.9728    9.0508 C   0  0  0  1  0  3  0  0  0  0  0  0
   -8.6413    2.0412   11.0255 C   0  0  0  1  0  3  0  0  0  0  0  0
   -8.9464    2.9932   12.0166 C   0  0  0  1  0  3  0  0  0  0  0  0
   -8.1813    4.0766   11.7745 C   0  0  0  1  0  3  0  0  0  0  0  0
   -1.9954    0.0444    1.5569 H   0  0  0  1  0  1  0  0  0  0  0  0
   -0.0082    3.8194    1.5647 H   0  0  0  1  0  1  0  0  0  0  0  0
   -3.2759    0.7034    3.5513 H   0  0  0  1  0  1  0  0  0  0  0  0
   -1.2803    4.4958    3.5587 H   0  0  0  1  0  1  0  0  0  0  0  0
    0.0739    3.1575   -2.6605 H   0  0  0  1  0  1  0  0  0  0  0  0
   -1.6340    3.5495   -2.3480 H   0  0  0  1  0  1  0  0  0  0  0  0
   -1.8861    0.0287   -1.3324 H   0  0  0  1  0  1  0  0  0  0  0  0
   -2.8700    1.4142   -1.8622 H   0  0  0  1  0  1  0  0  0  0  0  0
   -1.6108    0.7551   -2.9339 H   0  0  0  1  0  1  0  0  0  0  0  0
   -0.3991    3.9069   -1.1169 H   0  0  0  1  0  1  0  0  0  0  0  0
   -2.3013    5.0263    5.1493 H   0  0  0  1  0  1  0  0  0  0  0  0
   -5.8427    1.1181    6.9839 H   0  0  0  1  0  1  0  0  0  0  0  0
   -7.3611    0.9733    8.7598 H   0  0  0  1  0  1  0  0  0  0  0  0
   -9.0742    1.0572   10.9218 H   0  0  0  1  0  1  0  0  0  0  0  0
   -9.6594    2.8776   12.8195 H   0  0  0  1  0  1  0  0  0  0  0  0
   -8.1763    4.9860   12.3570 H   0  0  0  1  0  1  0  0  0  0  0  0
  1  3  2  0  0  0  0
  1  4  2  0  0  0  0
  1  6  1  0  0  0  0
  1 10  1  0  0  0  0
  2 19  1  0  0  0  0
  2 20  1  0  0  0  0
  5 21  1  0  0  0  0
  5 25  1  0  0  0  0
  6 17  1  0  0  0  0
  6 18  1  0  0  0  0
  7 16  1  0  0  0  0
  7 20  2  0  0  0  0
  8  9  1  0  0  0  0
  8 20  1  0  0  0  0
  8 37  1  0  0  0  0
  9 22  2  0  0  0  0
 10 12  2  0  0  0  0
 10 13  1  0  0  0  0
 11 14  2  0  0  0  0
 11 15  1  0  0  0  0
 11 16  1  0  0  0  0
 12 14  1  0  0  0  0
 12 26  1  0  0  0  0
 13 15  2  0  0  0  0
 13 27  1  0  0  0  0
 14 28  1  0  0  0  0
 15 29  1  0  0  0  0
 16 19  2  0  0  0  0
 17 30  1  0  0  0  0
 17 31  1  0  0  0  0
 17 35  1  0  0  0  0
 18 32  1  0  0  0  0
 18 33  1  0  0  0  0
 18 34  1  0  0  0  0
 19 36  1  0  0  0  0
 21 22  1  0  0  0  0
 21 23  2  0  0  0  0
 22 38  1  0  0  0  0
 23 24  1  0  0  0  0
 23 39  1  0  0  0  0
 24 25  2  0  0  0  0
 24 40  1  0  0  0  0
 25 41  1  0  0  0  0
M  END
> <Activity>
7.294

> <Mapped(file=504701.csv.activities,property=Cached(PUBCHEM_COMPOUND_CID))>
7.294

> <PUBCHEM_ATOM_DEF_STEREO_COUNT>
0

> <PUBCHEM_ATOM_UDEF_STEREO_COUNT>
0

> <PUBCHEM_BONDANNOTATIONS>
10  12  8
10  13  8
11  14  8
11  15  8
12  14  8
13  15  8
16  19  8
2  19  8
2  20  8
21  23  8
23  24  8
24  25  8
5  21  8
5  25  8
7  16  8
7  20  8

> <PUBCHEM_BOND_DEF_STEREO_COUNT>
1

> <PUBCHEM_BOND_UDEF_STEREO_COUNT>
0

> <PUBCHEM_CACTVS_COMPLEXITY>
556

> <PUBCHEM_CACTVS_HBOND_ACCEPTOR>
6

> <PUBCHEM_CACTVS_HBOND_DONOR>
1

> <PUBCHEM_CACTVS_ROTATABLE_BOND>
6

> <PUBCHEM_CACTVS_SUBSKEYS>
AAADceB7sABgAAAAAAAAAAAAAAAAAWJAAAAwAAAAAAAAAAAB8AAAHgQYQAAADAzl3gazlZJqFEqsA7xz5HTS+LllKjkMiD0+LNiMJrKktRuGOSjkyBMIqaeYgIAOEAAAAAAAAAAgAAAAAAAAAAAAAAAAAA==

> <PUBCHEM_CACTVS_TAUTO_COUNT>
2

> <PUBCHEM_CACTVS_TPSA>
124

> <PUBCHEM_COMPONENT_COUNT>
1

> <PUBCHEM_COMPOUND_CANONICALIZED>
1

> <PUBCHEM_COMPOUND_CID>
9607375

> <PUBCHEM_COORDINATE_TYPE>
1
5
255

> <PUBCHEM_EXACT_MASS>
376.066382

> <PUBCHEM_HEAVY_ATOM_COUNT>
25

> <PUBCHEM_ISOTOPIC_ATOM_COUNT>
0

> <PUBCHEM_IUPAC_CAS_NAME>
4-[2-[(2E)-2-(2-furanylmethylidene)hydrazinyl]-4-thiazolyl]-N,N-dimethylbenzenesulfonamide

> <PUBCHEM_IUPAC_INCHI>
InChI=1S/C16H16N4O3S2/c1-20(2)25(21,22)14-7-5-12(6-8-14)15-11-24-16(18-15)19-17-10-13-4-3-9-23-13/h3-11H,1-2H3,(H,18,19)/b17-10+

> <PUBCHEM_IUPAC_INCHIKEY>
GWCXEFGKGPBFIY-LICLKQGHSA-N

> <PUBCHEM_IUPAC_NAME>
4-[2-[(2E)-2-(furan-2-ylmethylidene)hydrazinyl]-1,3-thiazol-4-yl]-N,N-dimethylbenzenesulfonamide

> <PUBCHEM_IUPAC_OPENEYE_NAME>
4-[2-[(2E)-2-(2-furylmethylene)hydrazino]thiazol-4-yl]-N,N-dimethyl-benzenesulfonamide

> <PUBCHEM_IUPAC_SYSTEMATIC_NAME>
4-[2-[(2E)-2-(furan-2-ylmethylidene)hydrazinyl]-1,3-thiazol-4-yl]-N,N-dimethyl-benzenesulfonamide

> <PUBCHEM_IUPAC_TRADITIONAL_NAME>
4-[2-[(N'E)-N'-(2-furfurylidene)hydrazino]thiazol-4-yl]-N,N-dimethyl-benzenesulfonamide

> <PUBCHEM_MOLECULAR_FORMULA>
C16H16N4O3S2

> <PUBCHEM_MOLECULAR_WEIGHT>
376.45324

> <PUBCHEM_MONOISOTOPIC_WEIGHT>
376.066382

> <PUBCHEM_OPENEYE_CAN_SMILES>
CN(C)S(=O)(=O)C1=CC=C(C=C1)C2=CSC(=N2)NN=CC3=CC=CO3

> <PUBCHEM_OPENEYE_ISO_SMILES>
CN(C)S(=O)(=O)C1=CC=C(C=C1)C2=CSC(=N2)N/N=C/C3=CC=CO3

> <PUBCHEM_TOTAL_CHARGE>
0

> <PUBCHEM_XLOGP3_AA>
3.1

$$$$
Written by BCL::WriteToMDL,2003091
MBcorina  10171218483D 1   1.00000     0.00000 
CORINA 3.49 0026  01.06.2011
 39 41  0  0  0  0  0  0  0  0999 V2000
    0.0543    1.6751   -0.2928 S   0  0  0  1  0  2  0  0  0  0  0  0
    2.0576   -1.4950   -0.3245 O   0  0  0  1  0  1  0  0  0  0  0  0
   -3.3283   -1.3473   -0.4533 N   0  0  0  1  0  3  0  0  0  0  0  0
    2.4773    3.1056   -0.3560 N   0  0  0  1  0  3  0  0  0  0  0  0
    2.3543    0.7112   -0.3418 N   0  0  0  1  0  2  0  0  0  0  0  0
    5.8730    2.1872   -1.4233 C   0  0  0  1  0  3  0  0  0  0  0  0
    6.6163    3.1816   -0.8147 C   0  0  0  1  0  3  0  0  0  0  0  0
    3.8665    3.1314   -0.5104 C   0  0  0  1  0  3  0  0  0  0  0  0
   -2.2090   -0.5519   -0.3462 C   0  0  0  1  0  3  0  0  0  0  0  0
    4.5002    2.1590   -1.2733 C   0  0  0  1  0  3  0  0  0  0  0  0
    4.6163    4.1294    0.0995 C   0  0  0  1  0  3  0  0  0  0  0  0
    5.9883    4.1516   -0.0546 C   0  0  0  1  0  3  0  0  0  0  0  0
   -0.8703   -0.9990   -0.2585 C   0  0  0  1  0  3  0  0  0  0  0  0
    0.1526   -0.0980   -0.2864 C   0  0  0  1  0  3  0  0  0  0  0  0
   -2.6346    0.7653   -0.3405 C   0  0  0  1  0  3  0  0  0  0  0  0
   -4.4244   -0.5473   -0.5130 C   0  0  0  1  0  3  0  0  0  0  0  0
    1.8115    1.9059   -0.3350 C   0  0  0  1  0  3  0  0  0  0  0  0
    6.5609    1.1356   -2.2552 C   0  0  0  1  0  4  0  0  0  0  0  0
   -4.0281    0.7469   -0.4461 C   0  0  0  1  0  3  0  0  0  0  0  0
    8.1139    3.2090   -0.9806 C   0  0  0  1  0  4  0  0  0  0  0  0
   -3.3351   -2.8115   -0.5012 C   0  0  0  1  0  4  0  0  0  0  0  0
    1.5963   -0.3638   -0.3188 C   0  0  0  1  0  3  0  0  0  0  0  0
    3.9202    1.3820   -1.7489 H   0  0  0  1  0  1  0  0  0  0  0  0
    4.1267    4.8869    0.6934 H   0  0  0  1  0  1  0  0  0  0  0  0
    6.5719    4.9268    0.4198 H   0  0  0  1  0  1  0  0  0  0  0  0
   -0.6581   -2.0542   -0.1694 H   0  0  0  1  0  1  0  0  0  0  0  0
    1.9841    3.9357   -0.2639 H   0  0  0  1  0  1  0  0  0  0  0  0
   -2.0079    1.6419   -0.2679 H   0  0  0  1  0  1  0  0  0  0  0  0
   -5.4458   -0.8874   -0.6000 H   0  0  0  1  0  1  0  0  0  0  0  0
    6.8333    0.2917   -1.6214 H   0  0  0  1  0  1  0  0  0  0  0  0
    5.8870    0.7965   -3.0419 H   0  0  0  1  0  1  0  0  0  0  0  0
    7.4599    1.5581   -2.7040 H   0  0  0  1  0  1  0  0  0  0  0  0
   -4.6749    1.6115   -0.4701 H   0  0  0  1  0  1  0  0  0  0  0  0
    8.3715    3.8045   -1.8564 H   0  0  0  1  0  1  0  0  0  0  0  0
    8.5696    3.6504   -0.0942 H   0  0  0  1  0  1  0  0  0  0  0  0
    8.4837    2.1920   -1.1111 H   0  0  0  1  0  1  0  0  0  0  0  0
   -3.3205   -3.2084    0.5138 H   0  0  0  1  0  1  0  0  0  0  0  0
   -4.2348   -3.1542   -1.0124 H   0  0  0  1  0  1  0  0  0  0  0  0
   -2.4551   -3.1615   -1.0409 H   0  0  0  1  0  1  0  0  0  0  0  0
  1 14  1  0  0  0  0
  1 17  1  0  0  0  0
  2 22  2  0  0  0  0
  3  9  1  0  0  0  0
  3 16  1  0  0  0  0
  3 21  1  0  0  0  0
  4  8  1  0  0  0  0
  4 17  1  0  0  0  0
  4 27  1  0  0  0  0
  5 17  2  0  0  0  0
  5 22  1  0  0  0  0
  6  7  2  0  0  0  0
  6 10  1  0  0  0  0
  6 18  1  0  0  0  0
  7 12  1  0  0  0  0
  7 20  1  0  0  0  0
  8 10  2  0  0  0  0
  8 11  1  0  0  0  0
  9 13  1  0  0  0  0
  9 15  2  0  0  0  0
 10 23  1  0  0  0  0
 11 12  2  0  0  0  0
 11 24  1  0  0  0  0
 12 25  1  0  0  0  0
 13 14  2  0  0  0  0
 13 26  1  0  0  0  0
 14 22  1  0  0  0  0
 15 19  1  0  0  0  0
 15 28  1  0  0  0  0
 16 19  2  0  0  0  0
 16 29  1  0  0  0  0
 18 30  1  0  0  0  0
 18 31  1  0  0  0  0
 18 32  1  0  0  0  0
 19 33  1  0  0  0  0
 20 34  1  0  0  0  0
 20 35  1  0  0  0  0
 20 36  1  0  0  0  0
 21 37  1  0  0  0  0
 21 38  1  0  0  0  0
 21 39  1  0  0  0  0
M  END
> <Activity>
2.199

> <Mapped(file=504701.csv.activities,property=Cached(PUBCHEM_COMPOUND_CID))>
2.199

> <PUBCHEM_ATOM_DEF_STEREO_COUNT>
0

> <PUBCHEM_ATOM_UDEF_STEREO_COUNT>
0

> <PUBCHEM_BONDANNOTATIONS>
11  12  8
15  19  8
16  19  8
3  16  8
3  9  8
6  10  8
6  7  8
7  12  8
8  10  8
8  11  8
9  15  8

> <PUBCHEM_BOND_DEF_STEREO_COUNT>
1

> <PUBCHEM_BOND_UDEF_STEREO_COUNT>
0

> <PUBCHEM_CACTVS_COMPLEXITY>
502

> <PUBCHEM_CACTVS_HBOND_ACCEPTOR>
2

> <PUBCHEM_CACTVS_HBOND_DONOR>
1

> <PUBCHEM_CACTVS_ROTATABLE_BOND>
3

> <PUBCHEM_CACTVS_SUBSKEYS>
AAADceB7IABAAAAAAAAAAAAAAAAAAWIAAAAwAAAAAAAAAAABwAAAHgQQAAAADAjB3gQ/wJPMEAioAzV3dACCkCFxAjAJ2CA4ZNgIIOLAmZGEIAhgkADIyYcQgIAOiAAAQAAQAAAQAACAACAAAAAAAAAAAA==

> <PUBCHEM_CACTVS_TAUTO_COUNT>
3

> <PUBCHEM_CACTVS_TPSA>
71.7

> <PUBCHEM_COMPONENT_COUNT>
1

> <PUBCHEM_COMPOUND_CANONICALIZED>
1

> <PUBCHEM_COMPOUND_CID>
2003091

> <PUBCHEM_COORDINATE_TYPE>
1
5
255

> <PUBCHEM_EXACT_MASS>
311.109233

> <PUBCHEM_HEAVY_ATOM_COUNT>
22

> <PUBCHEM_ISOTOPIC_ATOM_COUNT>
0

> <PUBCHEM_IUPAC_CAS_NAME>
(5Z)-2-(3,4-dimethylanilino)-5-[(1-methyl-2-pyrrolyl)methylidene]-4-thiazolone

> <PUBCHEM_IUPAC_INCHI>
InChI=1S/C17H17N3OS/c1-11-6-7-13(9-12(11)2)18-17-19-16(21)15(22-17)10-14-5-4-8-20(14)3/h4-10H,1-3H3,(H,18,19,21)/b15-10-

> <PUBCHEM_IUPAC_INCHIKEY>
GHYZZNGAQPUIDR-GDNBJRDFSA-N

> <PUBCHEM_IUPAC_NAME>
(5Z)-2-(3,4-dimethylanilino)-5-[(1-methylpyrrol-2-yl)methylidene]-1,3-thiazol-4-one

> <PUBCHEM_IUPAC_OPENEYE_NAME>
(5Z)-2-(3,4-dimethylanilino)-5-[(1-methylpyrrol-2-yl)methylene]thiazol-4-one

> <PUBCHEM_IUPAC_SYSTEMATIC_NAME>
(5Z)-2-[(3,4-dimethylphenyl)amino]-5-[(1-methylpyrrol-2-yl)methylidene]-1,3-thiazol-4-one

> <PUBCHEM_IUPAC_TRADITIONAL_NAME>
(5Z)-2-(3,4-dimethylanilino)-5-[(1-methylpyrrol-2-yl)methylene]-2-thiazolin-4-one

> <PUBCHEM_MOLECULAR_FORMULA>
C17H17N3OS

> <PUBCHEM_MOLECULAR_WEIGHT>
311.40138

> <PUBCHEM_MONOISOTOPIC_WEIGHT>
311.109233

> <PUBCHEM_OPENEYE_CAN_SMILES>
CC1=C(C=C(C=C1)NC2=NC(=O)C(=CC3=CC=CN3C)S2)C

> <PUBCHEM_OPENEYE_ISO_SMILES>
CC1=C(C=C(C=C1)NC2=NC(=O)/C(=C/C3=CC=CN3C)/S2)C

> <PUBCHEM_TOTAL_CHARGE>
0

> <PUBCHEM_XLOGP3_AA>
3.3

$$$$
Written by BCL::WriteToMDL,2877644
MBcorina  10171218483D 1   1.00000     0.00000 
CORINA 3.49 0026  01.06.2011
 43 47  0  0  0  0  0  0  0  0999 V2000
   -0.0162    1.3445    0.0094 O   0  0  0  1  0  2  0  0  0  0  0  0
   -2.3398   -0.6176    0.0206 N   0  0  0  1  0  3  0  0  0  0  0  0
   -4.9886   -0.4826   -1.0142 N   0  0  0  1  0  3  0  0  0  0  0  0
   -0.6477   -2.2612   -0.0039 N   0  0  0  1  0  2  0  0  0  0  0  0
    1.5991   -1.7394   -0.0225 N   0  0  0  1  0  2  0  0  0  0  0  0
   -3.2071   -1.8039    0.0220 C   0  0  0  1  0  4  0  0  0  0  0  0
   -2.6588    0.2630   -1.1118 C   0  0  0  1  0  4  0  0  0  0  0  0
   -4.1213    0.7038   -1.0157 C   0  0  0  1  0  4  0  0  0  0  0  0
   -4.6696   -1.3632    0.1182 C   0  0  0  1  0  4  0  0  0  0  0  0
   -1.0017   -0.9804    0.0063 C   0  0  0  1  0  3  0  0  0  0  0  0
   -6.3366   -0.1171   -0.9999 C   0  0  0  1  0  3  0  0  0  0  0  0
    0.0021   -0.0041    0.0020 C   0  0  0  1  0  3  0  0  0  0  0  0
    1.3331   -0.4357   -0.0130 C   0  0  0  1  0  3  0  0  0  0  0  0
    2.1487    0.7902   -0.0142 C   0  0  0  1  0  3  0  0  0  0  0  0
   -7.3230   -1.0951   -0.9962 C   0  0  0  1  0  3  0  0  0  0  0  0
   -6.6938    1.2252   -0.9835 C   0  0  0  1  0  3  0  0  0  0  0  0
    1.2347    1.8549    0.0002 C   0  0  0  1  0  3  0  0  0  0  0  0
    0.6220   -2.6215   -0.0179 C   0  0  0  1  0  3  0  0  0  0  0  0
    3.5172    1.0423   -0.0255 C   0  0  0  1  0  3  0  0  0  0  0  0
   -8.6549   -0.7303   -0.9820 C   0  0  0  1  0  3  0  0  0  0  0  0
   -8.0276    1.5831   -0.9694 C   0  0  0  1  0  3  0  0  0  0  0  0
    1.7142    3.1595    0.0026 C   0  0  0  1  0  3  0  0  0  0  0  0
   -9.0071    0.6070   -0.9716 C   0  0  0  1  0  3  0  0  0  0  0  0
    3.9730    2.3434   -0.0225 C   0  0  0  1  0  3  0  0  0  0  0  0
    3.0723    3.3969   -0.0090 C   0  0  0  1  0  3  0  0  0  0  0  0
   -3.0564   -2.3657   -0.8998 H   0  0  0  1  0  1  0  0  0  0  0  0
   -2.9602   -2.4339    0.8766 H   0  0  0  1  0  1  0  0  0  0  0  0
   -2.0121    1.1400   -1.0839 H   0  0  0  1  0  1  0  0  0  0  0  0
   -2.5019   -0.2753   -2.0466 H   0  0  0  1  0  1  0  0  0  0  0  0
   -4.3682    1.3337   -1.8703 H   0  0  0  1  0  1  0  0  0  0  0  0
   -4.2720    1.2655   -0.0938 H   0  0  0  1  0  1  0  0  0  0  0  0
   -4.8265   -0.8249    1.0529 H   0  0  0  1  0  1  0  0  0  0  0  0
   -5.3163   -2.2402    0.0902 H   0  0  0  1  0  1  0  0  0  0  0  0
   -7.0487   -2.1397   -1.0047 H   0  0  0  1  0  1  0  0  0  0  0  0
   -5.9293    1.9881   -0.9815 H   0  0  0  1  0  1  0  0  0  0  0  0
    0.8671   -3.6733   -0.0259 H   0  0  0  1  0  1  0  0  0  0  0  0
    4.2195    0.2219   -0.0363 H   0  0  0  1  0  1  0  0  0  0  0  0
   -9.4224   -1.4902   -0.9795 H   0  0  0  1  0  1  0  0  0  0  0  0
   -8.3059    2.6266   -0.9563 H   0  0  0  1  0  1  0  0  0  0  0  0
    1.0220    3.9884    0.0133 H   0  0  0  1  0  1  0  0  0  0  0  0
  -10.0494    0.8896   -0.9605 H   0  0  0  1  0  1  0  0  0  0  0  0
    5.0345    2.5423   -0.0309 H   0  0  0  1  0  1  0  0  0  0  0  0
    3.4377    4.4131   -0.0074 H   0  0  0  1  0  1  0  0  0  0  0  0
  1 12  1  0  0  0  0
  1 17  1  0  0  0  0
  2  6  1  0  0  0  0
  2  7  1  0  0  0  0
  2 10  1  0  0  0  0
  3  8  1  0  0  0  0
  3  9  1  0  0  0  0
  3 11  1  0  0  0  0
  4 10  2  0  0  0  0
  4 18  1  0  0  0  0
  5 13  1  0  0  0  0
  5 18  2  0  0  0  0
  6  9  1  0  0  0  0
  6 26  1  0  0  0  0
  6 27  1  0  0  0  0
  7  8  1  0  0  0  0
  7 28  1  0  0  0  0
  7 29  1  0  0  0  0
  8 30  1  0  0  0  0
  8 31  1  0  0  0  0
  9 32  1  0  0  0  0
  9 33  1  0  0  0  0
 10 12  1  0  0  0  0
 11 15  2  0  0  0  0
 11 16  1  0  0  0  0
 12 13  2  0  0  0  0
 13 14  1  0  0  0  0
 14 17  1  0  0  0  0
 14 19  2  0  0  0  0
 15 20  1  0  0  0  0
 15 34  1  0  0  0  0
 16 21  2  0  0  0  0
 16 35  1  0  0  0  0
 17 22  2  0  0  0  0
 18 36  1  0  0  0  0
 19 24  1  0  0  0  0
 19 37  1  0  0  0  0
 20 23  2  0  0  0  0
 20 38  1  0  0  0  0
 21 23  1  0  0  0  0
 21 39  1  0  0  0  0
 22 25  1  0  0  0  0
 22 40  1  0  0  0  0
 23 41  1  0  0  0  0
 24 25  2  0  0  0  0
 24 42  1  0  0  0  0
 25 43  1  0  0  0  0
M  END
> <Activity>
4.705

> <Mapped(file=504701.csv.activities,property=Cached(PUBCHEM_COMPOUND_CID))>
4.705

> <PUBCHEM_ATOM_DEF_STEREO_COUNT>
0

> <PUBCHEM_ATOM_UDEF_STEREO_COUNT>
0

> <PUBCHEM_BONDANNOTATIONS>
1  12  8
1  17  8
10  12  8
11  15  8
11  16  8
12  13  8
13  14  8
14  17  8
14  19  8
15  20  8
16  21  8
17  22  8
19  24  8
20  23  8
21  23  8
22  25  8
24  25  8
4  10  8
4  18  8
5  13  8
5  18  8

> <PUBCHEM_BOND_DEF_STEREO_COUNT>
0

> <PUBCHEM_BOND_UDEF_STEREO_COUNT>
0

> <PUBCHEM_CACTVS_COMPLEXITY>
447

> <PUBCHEM_CACTVS_HBOND_ACCEPTOR>
2

> <PUBCHEM_CACTVS_HBOND_DONOR>
0

> <PUBCHEM_CACTVS_ROTATABLE_BOND>
2

> <PUBCHEM_CACTVS_SUBSKEYS>
AAADceB7oAAAAAAAAAAAAAAAAAAAASAAAAA8eIEAAAAAAFgB/gAAHgAAAAAADAzBngQ19vcIFECoA6ZzZASCiCk3YqAJ2CGvbNiObrrE/fuXPajuwBvY6eeY2aKOAAAAAAAIAAAAAAAAABAAAAAAAAAAAA==

> <PUBCHEM_CACTVS_TAUTO_COUNT>
1

> <PUBCHEM_CACTVS_TPSA>
45.4

> <PUBCHEM_COMPONENT_COUNT>
1

> <PUBCHEM_COMPOUND_CANONICALIZED>
1

> <PUBCHEM_COMPOUND_CID>
2877644

> <PUBCHEM_COORDINATE_TYPE>
1
5
255

> <PUBCHEM_EXACT_MASS>
330.148061

> <PUBCHEM_HEAVY_ATOM_COUNT>
25

> <PUBCHEM_ISOTOPIC_ATOM_COUNT>
0

> <PUBCHEM_IUPAC_CAS_NAME>
4-(4-phenyl-1-piperazinyl)benzofuro[3,2-d]pyrimidine

> <PUBCHEM_IUPAC_INCHI>
InChI=1S/C20H18N4O/c1-2-6-15(7-3-1)23-10-12-24(13-11-23)20-19-18(21-14-22-20)16-8-4-5-9-17(16)25-19/h1-9,14H,10-13H2

> <PUBCHEM_IUPAC_INCHIKEY>
HBHHOFOOVLKNGC-UHFFFAOYSA-N

> <PUBCHEM_IUPAC_NAME>
4-(4-phenylpiperazin-1-yl)-[1]benzofuro[3,2-d]pyrimidine

> <PUBCHEM_IUPAC_OPENEYE_NAME>
4-(4-phenylpiperazin-1-yl)benzofuro[3,2-d]pyrimidine

> <PUBCHEM_IUPAC_SYSTEMATIC_NAME>
4-(4-phenylpiperazin-1-yl)-[1]benzofuro[3,2-d]pyrimidine

> <PUBCHEM_IUPAC_TRADITIONAL_NAME>
4-(4-phenylpiperazino)benzofuro[3,2-d]pyrimidine

> <PUBCHEM_MOLECULAR_FORMULA>
C20H18N4O

> <PUBCHEM_MOLECULAR_WEIGHT>
330.38312

> <PUBCHEM_MONOISOTOPIC_WEIGHT>
330.148061

> <PUBCHEM_OPENEYE_CAN_SMILES>
C1CN(CCN1C2=CC=CC=C2)C3=NC=NC4=C3OC5=CC=CC=C54

> <PUBCHEM_OPENEYE_ISO_SMILES>
C1CN(CCN1C2=CC=CC=C2)C3=NC=NC4=C3OC5=CC=CC=C54

> <PUBCHEM_TOTAL_CHARGE>
0

> <PUBCHEM_XLOGP3_AA>
4.1

$$$$
Written by BCL::WriteToMDL,4420032
MBcorina  10171218483D 1   1.00000     0.00000 
CORINA 3.49 0026  01.06.2011
 68 73  0  0  0  0  0  0  0  0999 V2000
    5.4516    2.2609   -1.8480 Br  0  0  0  1  0  1  0  0  0  0  0  0
   -1.6241   -0.1669   -0.0051 O   0  0  0  1  0  1  0  0  0  0  0  0
    2.4510   -2.6233    0.4759 O   0  0  0  1  0  1  0  0  0  0  0  0
    2.2463   -0.5357   -3.0066 O   0  0  0  1  0  1  0  0  0  0  0  0
   -0.4603    1.6613   -0.7233 N   0  0  0  1  0  3  0  0  0  0  0  0
    1.4361   -0.8321    3.1870 N   0  0  0  1  0  3  0  0  0  0  0  0
    0.4417   -3.3358   -2.3053 N   0  0  0  1  0  3  0  0  0  0  0  0
    2.1267   -1.9161    2.6291 N   0  0  0  1  0  3  0  0  0  0  0  0
    1.3050   -2.6182   -3.1438 N   0  0  0  1  0  3  0  0  0  0  0  0
    0.7852   -0.2413   -0.3713 C   0  0  0  1  0  4  0  0  0  0  0  0
    1.6829    0.8801   -0.8412 C   0  0  0  1  0  3  0  0  0  0  0  0
    0.8170   -1.3879   -1.3487 C   0  0  0  1  0  3  0  0  0  0  0  0
    1.1972   -0.7076    1.0012 C   0  0  0  1  0  3  0  0  0  0  0  0
   -0.5934    0.3831   -0.3309 C   0  0  0  1  0  3  0  0  0  0  0  0
    0.8623    1.9848   -1.0299 C   0  0  0  1  0  3  0  0  0  0  0  0
    0.1612   -2.5588   -1.2172 C   0  0  0  1  0  3  0  0  0  0  0  0
    0.8789   -0.1121    2.1684 C   0  0  0  1  0  3  0  0  0  0  0  0
    1.5396   -1.4233   -2.5640 C   0  0  0  1  0  3  0  0  0  0  0  0
    1.9848   -1.8465    1.2897 C   0  0  0  1  0  3  0  0  0  0  0  0
    3.0364    0.9576   -1.0813 C   0  0  0  1  0  3  0  0  0  0  0  0
    1.4297    3.1799   -1.4680 C   0  0  0  1  0  3  0  0  0  0  0  0
   -0.7305   -2.9447   -0.0653 C   0  0  0  1  0  4  0  0  0  0  0  0
    0.0486    1.1360    2.3231 C   0  0  0  1  0  4  0  0  0  0  0  0
    3.5932    2.1483   -1.5169 C   0  0  0  1  0  3  0  0  0  0  0  0
    2.7858    3.2557   -1.7086 C   0  0  0  1  0  3  0  0  0  0  0  0
   -0.0757   -4.6834   -2.5552 C   0  0  0  1  0  4  0  0  0  0  0  0
    1.3255   -0.5271    4.6156 C   0  0  0  1  0  4  0  0  0  0  0  0
    1.8294   -3.0615   -4.3622 C   0  0  0  1  0  3  0  0  0  0  0  0
    2.8358   -2.8939    3.3341 C   0  0  0  1  0  3  0  0  0  0  0  0
    0.5597    4.3920   -1.6800 C   0  0  0  1  0  4  0  0  0  0  0  0
    1.8077   -2.2285   -5.4734 C   0  0  0  1  0  3  0  0  0  0  0  0
    2.6615   -4.2371    3.0270 C   0  0  0  1  0  3  0  0  0  0  0  0
    2.3782   -4.3334   -4.4621 C   0  0  0  1  0  3  0  0  0  0  0  0
    3.7201   -2.5234    4.3390 C   0  0  0  1  0  3  0  0  0  0  0  0
    3.3636   -5.2002    3.7248 C   0  0  0  1  0  3  0  0  0  0  0  0
    2.3268   -2.6691   -6.6750 C   0  0  0  1  0  3  0  0  0  0  0  0
    4.4192   -3.4915    5.0329 C   0  0  0  1  0  3  0  0  0  0  0  0
    2.8956   -4.7679   -5.6666 C   0  0  0  1  0  3  0  0  0  0  0  0
    4.2391   -4.8283    4.7286 C   0  0  0  1  0  3  0  0  0  0  0  0
    2.8673   -3.9382   -6.7726 C   0  0  0  1  0  3  0  0  0  0  0  0
   -1.1992    2.2862   -0.7899 H   0  0  0  1  0  1  0  0  0  0  0  0
    3.6629    0.0910   -0.9303 H   0  0  0  1  0  1  0  0  0  0  0  0
   -1.0807   -3.9675   -0.2038 H   0  0  0  1  0  1  0  0  0  0  0  0
   -0.1700   -2.8757    0.8670 H   0  0  0  1  0  1  0  0  0  0  0  0
   -1.5856   -2.2700   -0.0259 H   0  0  0  1  0  1  0  0  0  0  0  0
    0.0343    1.4352    3.3711 H   0  0  0  1  0  1  0  0  0  0  0  0
    0.4807    1.9365    1.7226 H   0  0  0  1  0  1  0  0  0  0  0  0
   -0.9695    0.9390    1.9875 H   0  0  0  1  0  1  0  0  0  0  0  0
    3.2198    4.1843   -2.0487 H   0  0  0  1  0  1  0  0  0  0  0  0
    1.7947   -1.3226    5.1944 H   0  0  0  1  0  1  0  0  0  0  0  0
    0.3774   -5.0842   -3.4620 H   0  0  0  1  0  1  0  0  0  0  0  0
    0.1685   -5.3286   -1.7113 H   0  0  0  1  0  1  0  0  0  0  0  0
   -1.1579   -4.6401   -2.6783 H   0  0  0  1  0  1  0  0  0  0  0  0
    1.8259    0.4183    4.8251 H   0  0  0  1  0  1  0  0  0  0  0  0
    0.2734   -0.4499    4.8903 H   0  0  0  1  0  1  0  0  0  0  0  0
    0.5067    4.9674   -0.7557 H   0  0  0  1  0  1  0  0  0  0  0  0
    0.9853    5.0112   -2.4696 H   0  0  0  1  0  1  0  0  0  0  0  0
   -0.4424    4.0741   -1.9679 H   0  0  0  1  0  1  0  0  0  0  0  0
    1.3851   -1.2375   -5.3980 H   0  0  0  1  0  1  0  0  0  0  0  0
    1.9773   -4.5283    2.2437 H   0  0  0  1  0  1  0  0  0  0  0  0
    2.4006   -4.9819   -3.5987 H   0  0  0  1  0  1  0  0  0  0  0  0
    3.8613   -1.4795    4.5771 H   0  0  0  1  0  1  0  0  0  0  0  0
    2.3103   -2.0219   -7.5394 H   0  0  0  1  0  1  0  0  0  0  0  0
    3.2285   -6.2449    3.4865 H   0  0  0  1  0  1  0  0  0  0  0  0
    3.3225   -5.7569   -5.7450 H   0  0  0  1  0  1  0  0  0  0  0  0
    5.1070   -3.2041    5.8144 H   0  0  0  1  0  1  0  0  0  0  0  0
    3.2720   -4.2806   -7.7135 H   0  0  0  1  0  1  0  0  0  0  0  0
    4.7864   -5.5834    5.2732 H   0  0  0  1  0  1  0  0  0  0  0  0
  1 24  1  0  0  0  0
  2 14  2  0  0  0  0
  3 19  2  0  0  0  0
  4 18  2  0  0  0  0
  5 14  1  0  0  0  0
  5 15  1  0  0  0  0
  5 41  1  0  0  0  0
  6  8  1  0  0  0  0
  6 17  1  0  0  0  0
  6 27  1  0  0  0  0
  7  9  1  0  0  0  0
  7 16  1  0  0  0  0
  7 26  1  0  0  0  0
  8 19  1  0  0  0  0
  8 29  1  0  0  0  0
  9 18  1  0  0  0  0
  9 28  1  0  0  0  0
 10 11  1  0  0  0  0
 10 12  1  0  0  0  0
 10 13  1  0  0  0  0
 10 14  1  0  0  0  0
 11 15  2  0  0  0  0
 11 20  1  0  0  0  0
 12 16  2  0  0  0  0
 12 18  1  0  0  0  0
 13 17  2  0  0  0  0
 13 19  1  0  0  0  0
 15 21  1  0  0  0  0
 16 22  1  0  0  0  0
 17 23  1  0  0  0  0
 20 24  2  0  0  0  0
 20 42  1  0  0  0  0
 21 25  2  0  0  0  0
 21 30  1  0  0  0  0
 22 43  1  0  0  0  0
 22 44  1  0  0  0  0
 22 45  1  0  0  0  0
 23 46  1  0  0  0  0
 23 47  1  0  0  0  0
 23 48  1  0  0  0  0
 24 25  1  0  0  0  0
 25 49  1  0  0  0  0
 26 51  1  0  0  0  0
 26 52  1  0  0  0  0
 26 53  1  0  0  0  0
 27 50  1  0  0  0  0
 27 54  1  0  0  0  0
 27 55  1  0  0  0  0
 28 31  2  0  0  0  0
 28 33  1  0  0  0  0
 29 32  2  0  0  0  0
 29 34  1  0  0  0  0
 30 56  1  0  0  0  0
 30 57  1  0  0  0  0
 30 58  1  0  0  0  0
 31 36  1  0  0  0  0
 31 59  1  0  0  0  0
 32 35  1  0  0  0  0
 32 60  1  0  0  0  0
 33 38  2  0  0  0  0
 33 61  1  0  0  0  0
 34 37  2  0  0  0  0
 34 62  1  0  0  0  0
 35 39  2  0  0  0  0
 35 64  1  0  0  0  0
 36 40  2  0  0  0  0
 36 63  1  0  0  0  0
 37 39  1  0  0  0  0
 37 66  1  0  0  0  0
 38 40  1  0  0  0  0
 38 65  1  0  0  0  0
 39 68  1  0  0  0  0
 40 67  1  0  0  0  0
M  END
> <Activity>
1.279

> <Mapped(file=504701.csv.activities,property=Cached(PUBCHEM_COMPOUND_CID))>
1.279

> <PUBCHEM_ATOM_DEF_STEREO_COUNT>
0

> <PUBCHEM_ATOM_UDEF_STEREO_COUNT>
0

> <PUBCHEM_BONDANNOTATIONS>
11  15  8
11  20  8
12  16  8
12  18  8
13  17  8
13  19  8
15  21  8
20  24  8
21  25  8
24  25  8
28  31  8
28  33  8
29  32  8
29  34  8
31  36  8
32  35  8
33  38  8
34  37  8
35  39  8
36  40  8
37  39  8
38  40  8
6  17  8
6  8  8
7  16  8
7  9  8
8  19  8
9  18  8

> <PUBCHEM_BOND_DEF_STEREO_COUNT>
0

> <PUBCHEM_BOND_UDEF_STEREO_COUNT>
0

> <PUBCHEM_CACTVS_COMPLEXITY>
1090

> <PUBCHEM_CACTVS_HBOND_ACCEPTOR>
5

> <PUBCHEM_CACTVS_HBOND_DONOR>
1

> <PUBCHEM_CACTVS_ROTATABLE_BOND>
4

> <PUBCHEM_CACTVS_SUBSKEYS>
AAADceB7sAAAEAAAAAAAAAAAAAAAAWIEAAAwYMAAAAAAAFgBUAAAHgBYAAABrgiBmAQywILAAACIAiVSUACCBAAhAgQaiAEIZOgIIDLAlZGEIAhghADIy1cdi8CfgAAiEAACAAAAAEQgAAQAAAAAAAAAAA==

> <PUBCHEM_CACTVS_TAUTO_COUNT>
2

> <PUBCHEM_CACTVS_TPSA>
76.2

> <PUBCHEM_COMPONENT_COUNT>
1

> <PUBCHEM_COMPOUND_CANONICALIZED>
1

> <PUBCHEM_COMPOUND_CID>
4420032

> <PUBCHEM_COORDINATE_TYPE>
1
5
255

> <PUBCHEM_EXACT_MASS>
597.137552

> <PUBCHEM_HEAVY_ATOM_COUNT>
40

> <PUBCHEM_ISOTOPIC_ATOM_COUNT>
0

> <PUBCHEM_IUPAC_CAS_NAME>
5-bromo-3,3-bis(1,5-dimethyl-3-oxo-2-phenyl-4-pyrazolyl)-7-methyl-1H-indol-2-one

> <PUBCHEM_IUPAC_INCHI>
InChI=1S/C31H28BrN5O3/c1-18-16-21(32)17-24-27(18)33-30(40)31(24,25-19(2)34(4)36(28(25)38)22-12-8-6-9-13-22)26-20(3)35(5)37(29(26)39)23-14-10-7-11-15-23/h6-17H,1-5H3,(H,33,40)

> <PUBCHEM_IUPAC_INCHIKEY>
AWYHAJSPPSBCPE-UHFFFAOYSA-N

> <PUBCHEM_IUPAC_NAME>
5-bromo-3,3-bis(1,5-dimethyl-3-oxo-2-phenylpyrazol-4-yl)-7-methyl-1H-indol-2-one

> <PUBCHEM_IUPAC_OPENEYE_NAME>
5-bromo-3,3-bis(1,5-dimethyl-3-oxo-2-phenyl-pyrazol-4-yl)-7-methyl-indolin-2-one

> <PUBCHEM_IUPAC_SYSTEMATIC_NAME>
5-bromanyl-3,3-bis(1,5-dimethyl-3-oxidanylidene-2-phenyl-pyrazol-4-yl)-7-methyl-1H-indol-2-one

> <PUBCHEM_IUPAC_TRADITIONAL_NAME>
5-bromo-3,3-bis(3-keto-1,5-dimethyl-2-phenyl-3-pyrazolin-4-yl)-7-methyl-oxindole

> <PUBCHEM_MOLECULAR_FORMULA>
C31H28BrN5O3

> <PUBCHEM_MOLECULAR_WEIGHT>
598.48972

> <PUBCHEM_MONOISOTOPIC_WEIGHT>
597.137552

> <PUBCHEM_OPENEYE_CAN_SMILES>
CC1=C2C(=CC(=C1)Br)C(C(=O)N2)(C3=C(N(N(C3=O)C4=CC=CC=C4)C)C)C5=C(N(N(C5=O)C6=CC=CC=C6)C)C

> <PUBCHEM_OPENEYE_ISO_SMILES>
CC1=C2C(=CC(=C1)Br)C(C(=O)N2)(C3=C(N(N(C3=O)C4=CC=CC=C4)C)C)C5=C(N(N(C5=O)C6=CC=CC=C6)C)C

> <PUBCHEM_TOTAL_CHARGE>
0

> <PUBCHEM_XLOGP3_AA>
5.2

$$$$
Written by BCL::WriteToMDL,12004912
MBcorina  10171218483D 1   1.00000     0.00000 
CORINA 3.49 0026  01.06.2011
 58 61  0  0  0  0  0  0  0  0999 V2000
   -0.0173    1.4248    0.0099 O   0  0  0  1  0  2  0  0  0  0  0  0
   -2.0828   -4.6743   -0.0032 O   0  0  0  1  0  1  0  0  0  0  0  0
   -6.7545   -5.6964    0.0360 O   0  0  0  1  0  1  0  0  0  0  0  0
   -8.8920  -10.0819    0.0328 N   0  0  0  1  0  3  0  0  0  0  0  0
   -6.5721  -10.4513    0.0050 N   0  0  0  1  0  2  0  0  0  0  0  0
  -10.4687  -11.5742    0.0497 N   0  0  0  1  0  2  0  0  0  0  0  0
  -10.1350   -9.4349    0.0485 N   0  0  0  1  0  2  0  0  0  0  0  0
   -7.3647   -8.2851    0.0279 N   0  0  0  1  0  3  0  0  0  0  0  0
   -2.7870   -2.5706    0.0149 N   0  0  0  1  0  3  0  0  0  0  0  0
   -6.0504   -7.8002    0.0179 N   0  0  0  1  0  3  0  0  0  0  0  0
   -9.1626  -11.4244    0.0343 C   0  0  0  1  0  3  0  0  0  0  0  0
   -8.0234  -12.3498    0.0199 C   0  0  0  1  0  3  0  0  0  0  0  0
   -6.7219  -11.7980    0.0046 C   0  0  0  1  0  3  0  0  0  0  0  0
   -7.5976   -9.6401    0.0228 C   0  0  0  1  0  3  0  0  0  0  0  0
  -11.0590  -10.3742    0.0584 C   0  0  0  1  0  3  0  0  0  0  0  0
   -4.4290   -4.4205    0.0206 C   0  0  0  1  0  4  0  0  0  0  0  0
   -1.4126   -2.0635    0.0045 C   0  0  0  1  0  4  0  0  0  0  0  0
   -8.1946  -13.7318    0.0197 C   0  0  0  1  0  3  0  0  0  0  0  0
   -4.4083   -5.9503    0.0122 C   0  0  0  1  0  4  0  0  0  0  0  0
   -1.4333   -0.5336    0.0129 C   0  0  0  1  0  4  0  0  0  0  0  0
   -5.6176  -12.6538   -0.0140 C   0  0  0  1  0  3  0  0  0  0  0  0
  -12.5240  -10.1377    0.0762 C   0  0  0  1  0  3  0  0  0  0  0  0
   -3.0152   -3.8988    0.0099 C   0  0  0  1  0  3  0  0  0  0  0  0
   -5.8221   -6.4719    0.0229 C   0  0  0  1  0  3  0  0  0  0  0  0
   -7.0893  -14.5547    0.0053 C   0  0  0  1  0  3  0  0  0  0  0  0
    0.0021   -0.0041    0.0020 C   0  0  0  1  0  4  0  0  0  0  0  0
   -5.8095  -14.0168   -0.0134 C   0  0  0  1  0  3  0  0  0  0  0  0
  -13.0221   -8.8366    0.0839 C   0  0  0  1  0  3  0  0  0  0  0  0
  -13.4063  -11.2160    0.0795 C   0  0  0  1  0  3  0  0  0  0  0  0
  -14.3855   -8.6224    0.1000 C   0  0  0  1  0  3  0  0  0  0  0  0
  -14.7678  -10.9904    0.0957 C   0  0  0  1  0  3  0  0  0  0  0  0
  -15.2569   -9.6966    0.1085 C   0  0  0  1  0  3  0  0  0  0  0  0
    1.2801    2.0237    0.0007 C   0  0  0  1  0  4  0  0  0  0  0  0
   -4.9562   -4.0594   -0.8625 H   0  0  0  1  0  1  0  0  0  0  0  0
   -4.9392   -4.0689    0.9174 H   0  0  0  1  0  1  0  0  0  0  0  0
   -0.8854   -2.4246    0.8875 H   0  0  0  1  0  1  0  0  0  0  0  0
   -0.9024   -2.4150   -0.8923 H   0  0  0  1  0  1  0  0  0  0  0  0
   -3.8981   -6.3018   -0.8846 H   0  0  0  1  0  1  0  0  0  0  0  0
   -3.8811   -6.3114    0.8953 H   0  0  0  1  0  1  0  0  0  0  0  0
   -9.1877  -14.1562    0.0310 H   0  0  0  1  0  1  0  0  0  0  0  0
   -1.9605   -0.1726   -0.8702 H   0  0  0  1  0  1  0  0  0  0  0  0
   -1.9435   -0.1821    0.9097 H   0  0  0  1  0  1  0  0  0  0  0  0
   -8.1105   -7.6649    0.0383 H   0  0  0  1  0  1  0  0  0  0  0  0
   -4.6172  -12.2473   -0.0293 H   0  0  0  1  0  1  0  0  0  0  0  0
   -3.5327   -1.9503    0.0253 H   0  0  0  1  0  1  0  0  0  0  0  0
   -7.2198  -15.6268    0.0055 H   0  0  0  1  0  1  0  0  0  0  0  0
   -5.3046   -8.4204    0.0075 H   0  0  0  1  0  1  0  0  0  0  0  0
    0.5123   -0.3556   -0.8948 H   0  0  0  1  0  1  0  0  0  0  0  0
    0.5293   -0.3651    0.8851 H   0  0  0  1  0  1  0  0  0  0  0  0
   -4.9541  -14.6759   -0.0282 H   0  0  0  1  0  1  0  0  0  0  0  0
  -12.3427   -7.9971    0.0776 H   0  0  0  1  0  1  0  0  0  0  0  0
  -13.0255  -12.2266    0.0691 H   0  0  0  1  0  1  0  0  0  0  0  0
  -14.7727   -7.6142    0.1063 H   0  0  0  1  0  1  0  0  0  0  0  0
  -15.4526  -11.8255    0.0979 H   0  0  0  1  0  1  0  0  0  0  0  0
  -16.3230   -9.5245    0.1215 H   0  0  0  1  0  1  0  0  0  0  0  0
    1.1793    3.1090    0.0075 H   0  0  0  1  0  1  0  0  0  0  0  0
    1.8338    1.7047    0.8837 H   0  0  0  1  0  1  0  0  0  0  0  0
    1.8168    1.7143   -0.8961 H   0  0  0  1  0  1  0  0  0  0  0  0
  1 26  1  0  0  0  0
  1 33  1  0  0  0  0
  2 23  2  0  0  0  0
  3 24  2  0  0  0  0
  4  7  1  0  0  0  0
  4 11  1  0  0  0  0
  4 14  1  0  0  0  0
  5 13  1  0  0  0  0
  5 14  2  0  0  0  0
  6 11  2  0  0  0  0
  6 15  1  0  0  0  0
  7 15  2  0  0  0  0
  8 10  1  0  0  0  0
  8 14  1  0  0  0  0
  8 43  1  0  0  0  0
  9 17  1  0  0  0  0
  9 23  1  0  0  0  0
  9 45  1  0  0  0  0
 10 24  1  0  0  0  0
 10 47  1  0  0  0  0
 11 12  1  0  0  0  0
 12 13  1  0  0  0  0
 12 18  2  0  0  0  0
 13 21  2  0  0  0  0
 15 22  1  0  0  0  0
 16 19  1  0  0  0  0
 16 23  1  0  0  0  0
 16 34  1  0  0  0  0
 16 35  1  0  0  0  0
 17 20  1  0  0  0  0
 17 36  1  0  0  0  0
 17 37  1  0  0  0  0
 18 25  1  0  0  0  0
 18 40  1  0  0  0  0
 19 24  1  0  0  0  0
 19 38  1  0  0  0  0
 19 39  1  0  0  0  0
 20 26  1  0  0  0  0
 20 41  1  0  0  0  0
 20 42  1  0  0  0  0
 21 27  1  0  0  0  0
 21 44  1  0  0  0  0
 22 28  2  0  0  0  0
 22 29  1  0  0  0  0
 25 27  2  0  0  0  0
 25 46  1  0  0  0  0
 26 48  1  0  0  0  0
 26 49  1  0  0  0  0
 27 50  1  0  0  0  0
 28 30  1  0  0  0  0
 28 51  1  0  0  0  0
 29 31  2  0  0  0  0
 29 52  1  0  0  0  0
 30 32  2  0  0  0  0
 30 53  1  0  0  0  0
 31 32  1  0  0  0  0
 31 54  1  0  0  0  0
 32 55  1  0  0  0  0
 33 56  1  0  0  0  0
 33 57  1  0  0  0  0
 33 58  1  0  0  0  0
M  END
> <Activity>
3.546

> <Mapped(file=504701.csv.activities,property=Cached(PUBCHEM_COMPOUND_CID))>
3.546

> <PUBCHEM_ATOM_DEF_STEREO_COUNT>
0

> <PUBCHEM_ATOM_UDEF_STEREO_COUNT>
0

> <PUBCHEM_BONDANNOTATIONS>
11  12  8
12  13  8
12  18  8
13  21  8
18  25  8
21  27  8
22  28  8
22  29  8
25  27  8
28  30  8
29  31  8
30  32  8
31  32  8
4  11  8
4  14  8
4  7  8
5  13  8
5  14  8
6  11  8
6  15  8
7  15  8

> <PUBCHEM_BOND_DEF_STEREO_COUNT>
0

> <PUBCHEM_BOND_UDEF_STEREO_COUNT>
0

> <PUBCHEM_CACTVS_COMPLEXITY>
646

> <PUBCHEM_CACTVS_HBOND_ACCEPTOR>
3

> <PUBCHEM_CACTVS_HBOND_DONOR>
3

> <PUBCHEM_CACTVS_ROTATABLE_BOND>
10

> <PUBCHEM_CACTVS_SUBSKEYS>
AAADceB7sAAAAAAAAAAAAAAAAAAAAWAAAAA8YIAAAAAAAFix9AAAHgAYAAAADAjhnwYz8P7qFACqAydydACShCshAqIfuKE4ZJiIKLLA2dGEpAh6ngLIyCcVgAAOAAAAAAACAAAAAAAAAAQAAAAAAAAAAA==

> <PUBCHEM_CACTVS_TAUTO_COUNT>
36

> <PUBCHEM_CACTVS_TPSA>
123

> <PUBCHEM_COMPONENT_COUNT>
1

> <PUBCHEM_COMPOUND_CANONICALIZED>
1

> <PUBCHEM_COMPOUND_CID>
12004912

> <PUBCHEM_COORDINATE_TYPE>
1
5
255

> <PUBCHEM_EXACT_MASS>
447.201888

> <PUBCHEM_HEAVY_ATOM_COUNT>
33

> <PUBCHEM_ISOTOPIC_ATOM_COUNT>
0

> <PUBCHEM_IUPAC_CAS_NAME>
N-(3-methoxypropyl)-4-oxo-4-[(2-phenyl-[1,2,4]triazolo[1,5-c]quinazolin-5-yl)hydrazo]butanamide

> <PUBCHEM_IUPAC_INCHI>
InChI=1S/C23H25N7O3/c1-33-15-7-14-24-19(31)12-13-20(32)27-28-23-25-18-11-6-5-10-17(18)22-26-21(29-30(22)23)16-8-3-2-4-9-16/h2-6,8-11H,7,12-15H2,1H3,(H,24,31)(H,25,28)(H,27,32)

> <PUBCHEM_IUPAC_INCHIKEY>
FQAOKDLJUOIMDU-UHFFFAOYSA-N

> <PUBCHEM_IUPAC_NAME>
N-(3-methoxypropyl)-4-oxo-4-[2-(2-phenyl-[1,2,4]triazolo[1,5-c]quinazolin-5-yl)hydrazinyl]butanamide

> <PUBCHEM_IUPAC_OPENEYE_NAME>
N-(3-methoxypropyl)-4-oxo-4-[2-(2-phenyl-[1,2,4]triazolo[1,5-c]quinazolin-5-yl)hydrazino]butanamide

> <PUBCHEM_IUPAC_SYSTEMATIC_NAME>
N-(3-methoxypropyl)-4-oxidanylidene-4-[2-(2-phenyl-[1,2,4]triazolo[1,5-c]quinazolin-5-yl)hydrazinyl]butanamide

> <PUBCHEM_IUPAC_TRADITIONAL_NAME>
4-keto-N-(3-methoxypropyl)-4-[N'-(2-phenyl-[1,2,4]triazolo[1,5-c]quinazolin-5-yl)hydrazino]butyramide

> <PUBCHEM_MOLECULAR_FORMULA>
C23H25N7O3

> <PUBCHEM_MOLECULAR_WEIGHT>
447.4897

> <PUBCHEM_MONOISOTOPIC_WEIGHT>
447.201888

> <PUBCHEM_OPENEYE_CAN_SMILES>
COCCCNC(=O)CCC(=O)NNC1=NC2=CC=CC=C2C3=NC(=NN31)C4=CC=CC=C4

> <PUBCHEM_OPENEYE_ISO_SMILES>
COCCCNC(=O)CCC(=O)NNC1=NC2=CC=CC=C2C3=NC(=NN31)C4=CC=CC=C4

> <PUBCHEM_TOTAL_CHARGE>
0

> <PUBCHEM_XLOGP3_AA>
2.3

$$$$
Written by BCL::WriteToMDL,2315573
MBcorina  10171218483D 1   1.00000     0.00000 
CORINA 3.49 0026  01.06.2011
 44 46  0  0  0  0  0  0  0  0999 V2000
    6.3628    1.5229   -3.5554 Cl  0  0  0  1  0  1  0  0  0  0  0  0
    1.1750    2.2988   -0.1331 S   0  0  0  1  0  4  0  0  0  0  0  0
    1.1781    3.6526    0.2988 O   0  0  0  1  0  1  0  0  0  0  0  0
    1.1169    1.1973    0.7627 O   0  0  0  1  0  1  0  0  0  0  0  0
   -1.5922    3.9281    0.2052 O   0  0  0  1  0  1  0  0  0  0  0  0
   -0.1165    2.1376   -1.1570 N   0  0  0  1  0  3  0  0  0  0  0  0
   -1.4470    5.5378   -1.3146 N   0  0  0  1  0  3  0  0  0  0  0  0
   -0.7679    3.2307   -1.8934 C   0  0  0  1  0  4  0  0  0  0  0  0
   -1.9333    2.6129   -2.6945 C   0  0  0  1  0  4  0  0  0  0  0  0
   -2.2256    1.2979   -1.9246 C   0  0  0  1  0  4  0  0  0  0  0  0
   -0.7995    0.8732   -1.4861 C   0  0  0  1  0  4  0  0  0  0  0  0
   -1.2986    4.2561   -0.9249 C   0  0  0  1  0  3  0  0  0  0  0  0
    2.6344    2.0805   -1.0960 C   0  0  0  1  0  3  0  0  0  0  0  0
    3.2932    3.1812   -1.6114 C   0  0  0  1  0  3  0  0  0  0  0  0
    3.1233    0.8090   -1.3310 C   0  0  0  1  0  3  0  0  0  0  0  0
   -1.8562    6.5067   -0.3918 C   0  0  0  1  0  3  0  0  0  0  0  0
    4.4380    3.0106   -2.3668 C   0  0  0  1  0  3  0  0  0  0  0  0
    4.2686    0.6372   -2.0855 C   0  0  0  1  0  3  0  0  0  0  0  0
   -1.3580    7.8006   -0.4742 C   0  0  0  1  0  3  0  0  0  0  0  0
   -2.7655    6.1782    0.6048 C   0  0  0  1  0  3  0  0  0  0  0  0
    4.9249    1.7379   -2.6067 C   0  0  0  1  0  3  0  0  0  0  0  0
   -1.7638    8.7545    0.4381 C   0  0  0  1  0  3  0  0  0  0  0  0
   -3.1674    7.1371    1.5143 C   0  0  0  1  0  3  0  0  0  0  0  0
   -2.6653    8.4227    1.4330 C   0  0  0  1  0  3  0  0  0  0  0  0
   -1.2234   10.1585    0.3497 C   0  0  0  1  0  4  0  0  0  0  0  0
   -0.0550    3.6952   -2.5746 H   0  0  0  1  0  1  0  0  0  0  0  0
   -2.8028    3.2700   -2.6794 H   0  0  0  1  0  1  0  0  0  0  0  0
   -1.6271    2.4001   -3.7187 H   0  0  0  1  0  1  0  0  0  0  0  0
   -2.8641    1.4844   -1.0611 H   0  0  0  1  0  1  0  0  0  0  0  0
   -2.6691    0.5504   -2.5823 H   0  0  0  1  0  1  0  0  0  0  0  0
   -0.2848    0.3651   -2.3016 H   0  0  0  1  0  1  0  0  0  0  0  0
   -0.8490    0.2292   -0.6080 H   0  0  0  1  0  1  0  0  0  0  0  0
   -1.2701    5.7885   -2.2348 H   0  0  0  1  0  1  0  0  0  0  0  0
    2.9131    4.1745   -1.4241 H   0  0  0  1  0  1  0  0  0  0  0  0
    2.6105   -0.0503   -0.9247 H   0  0  0  1  0  1  0  0  0  0  0  0
    4.9522    3.8705   -2.7700 H   0  0  0  1  0  1  0  0  0  0  0  0
    4.6504   -0.3563   -2.2690 H   0  0  0  1  0  1  0  0  0  0  0  0
   -0.6538    8.0603   -1.2507 H   0  0  0  1  0  1  0  0  0  0  0  0
   -3.1584    5.1742    0.6686 H   0  0  0  1  0  1  0  0  0  0  0  0
   -3.8749    6.8823    2.2895 H   0  0  0  1  0  1  0  0  0  0  0  0
   -2.9809    9.1705    2.1455 H   0  0  0  1  0  1  0  0  0  0  0  0
   -1.8713   10.7576   -0.2902 H   0  0  0  1  0  1  0  0  0  0  0  0
   -1.1900   10.5984    1.3464 H   0  0  0  1  0  1  0  0  0  0  0  0
   -0.2182   10.1351   -0.0711 H   0  0  0  1  0  1  0  0  0  0  0  0
  1 21  1  0  0  0  0
  2  3  2  0  0  0  0
  2  4  2  0  0  0  0
  2  6  1  0  0  0  0
  2 13  1  0  0  0  0
  5 12  2  0  0  0  0
  6  8  1  0  0  0  0
  6 11  1  0  0  0  0
  7 12  1  0  0  0  0
  7 16  1  0  0  0  0
  7 33  1  0  0  0  0
  8  9  1  0  0  0  0
  8 12  1  0  0  0  0
  8 26  1  0  0  0  0
  9 10  1  0  0  0  0
  9 27  1  0  0  0  0
  9 28  1  0  0  0  0
 10 11  1  0  0  0  0
 10 29  1  0  0  0  0
 10 30  1  0  0  0  0
 11 31  1  0  0  0  0
 11 32  1  0  0  0  0
 13 14  2  0  0  0  0
 13 15  1  0  0  0  0
 14 17  1  0  0  0  0
 14 34  1  0  0  0  0
 15 18  2  0  0  0  0
 15 35  1  0  0  0  0
 16 19  1  0  0  0  0
 16 20  2  0  0  0  0
 17 21  2  0  0  0  0
 17 36  1  0  0  0  0
 18 21  1  0  0  0  0
 18 37  1  0  0  0  0
 19 22  2  0  0  0  0
 19 38  1  0  0  0  0
 20 23  1  0  0  0  0
 20 39  1  0  0  0  0
 22 24  1  0  0  0  0
 22 25  1  0  0  0  0
 23 24  2  0  0  0  0
 23 40  1  0  0  0  0
 24 41  1  0  0  0  0
 25 42  1  0  0  0  0
 25 43  1  0  0  0  0
 25 44  1  0  0  0  0
M  END
> <Activity>
0.15274

> <Mapped(file=504701.csv.activities,property=Cached(PUBCHEM_COMPOUND_CID))>
0.15274

> <PUBCHEM_ATOM_DEF_STEREO_COUNT>
1

> <PUBCHEM_ATOM_UDEF_STEREO_COUNT>
0

> <PUBCHEM_BONDANNOTATIONS>
13  14  8
13  15  8
14  17  8
15  18  8
16  19  8
16  20  8
17  21  8
18  21  8
19  22  8
20  23  8
22  24  8
23  24  8
8  12  5

> <PUBCHEM_BOND_DEF_STEREO_COUNT>
0

> <PUBCHEM_BOND_UDEF_STEREO_COUNT>
0

> <PUBCHEM_CACTVS_COMPLEXITY>
569

> <PUBCHEM_CACTVS_HBOND_ACCEPTOR>
4

> <PUBCHEM_CACTVS_HBOND_DONOR>
1

> <PUBCHEM_CACTVS_ROTATABLE_BOND>
4

> <PUBCHEM_CACTVS_SUBSKEYS>
AAADceB7MABEAAAAAAAAAAAAAAAAAWAAAAAwYAAAAAAAAAABQAAAHgYQQAAADCrB2CQywYLAAAKIAiVSUHDCABAhBwAIiBmIZogIYDLBk7GUIAhglADIyAcYgQAOAAIAQAAAAAAABACAAAAAAAAAAAAAAA==

> <PUBCHEM_CACTVS_TAUTO_COUNT>
3

> <PUBCHEM_CACTVS_TPSA>
74.9

> <PUBCHEM_COMPONENT_COUNT>
1

> <PUBCHEM_COMPOUND_CANONICALIZED>
1

> <PUBCHEM_COMPOUND_CID>
2315573

> <PUBCHEM_COORDINATE_TYPE>
1
5
255

> <PUBCHEM_EXACT_MASS>
378.080491

> <PUBCHEM_HEAVY_ATOM_COUNT>
25

> <PUBCHEM_ISOTOPIC_ATOM_COUNT>
0

> <PUBCHEM_IUPAC_CAS_NAME>
(2S)-1-(4-chlorophenyl)sulfonyl-N-(3-methylphenyl)-2-pyrrolidinecarboxamide

> <PUBCHEM_IUPAC_INCHI>
InChI=1S/C18H19ClN2O3S/c1-13-4-2-5-15(12-13)20-18(22)17-6-3-11-21(17)25(23,24)16-9-7-14(19)8-10-16/h2,4-5,7-10,12,17H,3,6,11H2,1H3,(H,20,22)/t17-/m0/s1

> <PUBCHEM_IUPAC_INCHIKEY>
QJTDQWXWOIYYOT-KRWDZBQOSA-N

> <PUBCHEM_IUPAC_NAME>
(2S)-1-(4-chlorophenyl)sulfonyl-N-(3-methylphenyl)pyrrolidine-2-carboxamide

> <PUBCHEM_IUPAC_OPENEYE_NAME>
(2S)-1-(4-chlorophenyl)sulfonyl-N-(m-tolyl)pyrrolidine-2-carboxamide

> <PUBCHEM_IUPAC_SYSTEMATIC_NAME>
(2S)-1-(4-chlorophenyl)sulfonyl-N-(3-methylphenyl)pyrrolidine-2-carboxamide

> <PUBCHEM_IUPAC_TRADITIONAL_NAME>
(2S)-1-(4-chlorophenyl)sulfonyl-N-(m-tolyl)pyrrolidine-2-carboxamide

> <PUBCHEM_MOLECULAR_FORMULA>
C18H19ClN2O3S

> <PUBCHEM_MOLECULAR_WEIGHT>
378.87306

> <PUBCHEM_MONOISOTOPIC_WEIGHT>
378.080491

> <PUBCHEM_OPENEYE_CAN_SMILES>
CC1=CC(=CC=C1)NC(=O)C2CCCN2S(=O)(=O)C3=CC=C(C=C3)Cl

> <PUBCHEM_OPENEYE_ISO_SMILES>
CC1=CC(=CC=C1)NC(=O)[C@@H]2CCCN2S(=O)(=O)C3=CC=C(C=C3)Cl

> <PUBCHEM_TOTAL_CHARGE>
0

> <PUBCHEM_XLOGP3_AA>
3.5

$$$$
Written by BCL::WriteToMDL,24793385
MBcorina  10171218483D 1   1.00000     0.00000 
CORINA 3.49 0026  01.06.2011
 64 66  0  0  0  0  0  0  0  0999 V2000
    0.5859    0.7653   -0.2489 O   0  0  0  1  0  2  0  0  0  0  0  0
    2.7840    0.9002   -0.0658 O   0  0  0  1  0  1  0  0  0  0  0  0
    2.9916    3.5171    1.9742 O   0  0  0  1  0  1  0  0  0  0  0  0
    4.8708    5.3847    4.2177 O   0  0  0  1  0  1  0  0  0  0  0  0
    3.0550    3.5009   -0.2456 N   0  0  0  1  0  3  0  0  0  0  0  0
    5.1825    3.1866    4.1445 N   0  0  0  1  0  3  0  0  0  0  0  0
    6.9221    5.0337    1.7906 N   0  0  0  1  0  3  0  0  0  0  0  0
    5.7961    4.5656   -0.0015 N   0  0  0  1  0  2  0  0  0  0  0  0
    1.6912    2.9717   -0.3244 C   0  0  0  1  0  4  0  0  0  0  0  0
    0.6963   -0.6773   -0.1262 C   0  0  0  1  0  4  0  0  0  0  0  0
    1.0701    3.3604   -1.6675 C   0  0  0  1  0  4  0  0  0  0  0  0
    1.7274    1.4699   -0.2035 C   0  0  0  1  0  3  0  0  0  0  0  0
    0.9210    4.8584   -1.7372 C   0  0  0  1  0  3  0  0  0  0  0  0
    1.3422   -1.0269    1.2160 C   0  0  0  1  0  4  0  0  0  0  0  0
   -0.6976   -1.3037   -0.2000 C   0  0  0  1  0  4  0  0  0  0  0  0
    1.5609   -1.2213   -1.2653 C   0  0  0  1  0  4  0  0  0  0  0  0
    3.6167    3.7403    0.9559 C   0  0  0  1  0  3  0  0  0  0  0  0
    4.9931    4.2744    1.0354 C   0  0  0  1  0  3  0  0  0  0  0  0
    5.6971    4.5678    2.1955 C   0  0  0  1  0  3  0  0  0  0  0  0
    1.9458    5.6318   -2.2497 C   0  0  0  1  0  3  0  0  0  0  0  0
   -0.2426    5.4586   -1.2938 C   0  0  0  1  0  3  0  0  0  0  0  0
    4.8147    3.0414    5.5551 C   0  0  0  1  0  4  0  0  0  0  0  0
    5.2240    4.4104    3.5815 C   0  0  0  1  0  3  0  0  0  0  0  0
    1.8091    7.0059   -2.3136 C   0  0  0  1  0  3  0  0  0  0  0  0
   -0.3793    6.8327   -1.3578 C   0  0  0  1  0  3  0  0  0  0  0  0
    3.3220    2.8681    5.6698 C   0  0  0  1  0  3  0  0  0  0  0  0
    0.6475    7.6065   -1.8654 C   0  0  0  1  0  3  0  0  0  0  0  0
    5.5053    2.0015    3.3459 C   0  0  0  1  0  4  0  0  0  0  0  0
    6.9373    5.0148    0.4444 C   0  0  0  1  0  3  0  0  0  0  0  0
    2.7685    1.6019    5.6343 C   0  0  0  1  0  3  0  0  0  0  0  0
    2.5069    3.9749    5.8160 C   0  0  0  1  0  3  0  0  0  0  0  0
    1.3993    1.4430    5.7394 C   0  0  0  1  0  3  0  0  0  0  0  0
    1.1378    3.8160    5.9212 C   0  0  0  1  0  3  0  0  0  0  0  0
    0.5838    2.5502    5.8804 C   0  0  0  1  0  3  0  0  0  0  0  0
    1.0929    3.3871    0.4865 H   0  0  0  1  0  1  0  0  0  0  0  0
    1.7153    3.0214   -2.4779 H   0  0  0  1  0  1  0  0  0  0  0  0
    0.0901    2.8929   -1.7634 H   0  0  0  1  0  1  0  0  0  0  0  0
    3.5538    3.6790   -1.0583 H   0  0  0  1  0  1  0  0  0  0  0  0
    0.7263   -0.6394    2.0275 H   0  0  0  1  0  1  0  0  0  0  0  0
    1.4251   -2.1099    1.3082 H   0  0  0  1  0  1  0  0  0  0  0  0
    2.3353   -0.5807    1.2686 H   0  0  0  1  0  1  0  0  0  0  0  0
   -1.1577   -1.0546   -1.1562 H   0  0  0  1  0  1  0  0  0  0  0  0
   -0.6147   -2.3866   -0.1078 H   0  0  0  1  0  1  0  0  0  0  0  0
   -1.3135   -0.9161    0.6115 H   0  0  0  1  0  1  0  0  0  0  0  0
    2.5539   -0.7751   -1.2127 H   0  0  0  1  0  1  0  0  0  0  0  0
    1.6438   -2.3043   -1.1731 H   0  0  0  1  0  1  0  0  0  0  0  0
    1.1007   -0.9722   -2.2215 H   0  0  0  1  0  1  0  0  0  0  0  0
    2.8533    5.1626   -2.5998 H   0  0  0  1  0  1  0  0  0  0  0  0
   -1.0451    4.8539   -0.8978 H   0  0  0  1  0  1  0  0  0  0  0  0
    5.3150    2.1678    5.9730 H   0  0  0  1  0  1  0  0  0  0  0  0
    5.1202    3.9322    6.1039 H   0  0  0  1  0  1  0  0  0  0  0  0
    2.6100    7.6102   -2.7134 H   0  0  0  1  0  1  0  0  0  0  0  0
   -1.2886    7.3016   -1.0118 H   0  0  0  1  0  1  0  0  0  0  0  0
    7.6439    5.3271    2.3685 H   0  0  0  1  0  1  0  0  0  0  0  0
    0.5409    8.6801   -1.9150 H   0  0  0  1  0  1  0  0  0  0  0  0
    4.6160    1.6726    2.8082 H   0  0  0  1  0  1  0  0  0  0  0  0
    6.2913    2.2476    2.6320 H   0  0  0  1  0  1  0  0  0  0  0  0
    5.8485    1.2028    4.0034 H   0  0  0  1  0  1  0  0  0  0  0  0
    7.7677    5.3247   -0.1727 H   0  0  0  1  0  1  0  0  0  0  0  0
    3.4056    0.7369    5.5242 H   0  0  0  1  0  1  0  0  0  0  0  0
    2.9398    4.9638    5.8485 H   0  0  0  1  0  1  0  0  0  0  0  0
    0.9668    0.4538    5.7110 H   0  0  0  1  0  1  0  0  0  0  0  0
    0.5010    4.6807    6.0358 H   0  0  0  1  0  1  0  0  0  0  0  0
   -0.4859    2.4260    5.9622 H   0  0  0  1  0  1  0  0  0  0  0  0
  1 10  1  0  0  0  0
  1 12  1  0  0  0  0
  2 12  2  0  0  0  0
  3 17  2  0  0  0  0
  4 23  2  0  0  0  0
  5  9  1  0  0  0  0
  5 17  1  0  0  0  0
  5 38  1  0  0  0  0
  6 22  1  0  0  0  0
  6 23  1  0  0  0  0
  6 28  1  0  0  0  0
  7 19  1  0  0  0  0
  7 29  1  0  0  0  0
  7 54  1  0  0  0  0
  8 18  1  0  0  0  0
  8 29  2  0  0  0  0
  9 11  1  0  0  0  0
  9 12  1  0  0  0  0
  9 35  1  0  0  0  0
 10 14  1  0  0  0  0
 10 15  1  0  0  0  0
 10 16  1  0  0  0  0
 11 13  1  0  0  0  0
 11 36  1  0  0  0  0
 11 37  1  0  0  0  0
 13 20  2  0  0  0  0
 13 21  1  0  0  0  0
 14 39  1  0  0  0  0
 14 40  1  0  0  0  0
 14 41  1  0  0  0  0
 15 42  1  0  0  0  0
 15 43  1  0  0  0  0
 15 44  1  0  0  0  0
 16 45  1  0  0  0  0
 16 46  1  0  0  0  0
 16 47  1  0  0  0  0
 17 18  1  0  0  0  0
 18 19  2  0  0  0  0
 19 23  1  0  0  0  0
 20 24  1  0  0  0  0
 20 48  1  0  0  0  0
 21 25  2  0  0  0  0
 21 49  1  0  0  0  0
 22 26  1  0  0  0  0
 22 50  1  0  0  0  0
 22 51  1  0  0  0  0
 24 27  2  0  0  0  0
 24 52  1  0  0  0  0
 25 27  1  0  0  0  0
 25 53  1  0  0  0  0
 26 30  2  0  0  0  0
 26 31  1  0  0  0  0
 27 55  1  0  0  0  0
 28 56  1  0  0  0  0
 28 57  1  0  0  0  0
 28 58  1  0  0  0  0
 29 59  1  0  0  0  0
 30 32  1  0  0  0  0
 30 60  1  0  0  0  0
 31 33  2  0  0  0  0
 31 61  1  0  0  0  0
 32 34  2  0  0  0  0
 32 62  1  0  0  0  0
 33 34  1  0  0  0  0
 33 63  1  0  0  0  0
 34 64  1  0  0  0  0
M  END
> <Activity>
0.51452

> <Mapped(file=504701.csv.activities,property=Cached(PUBCHEM_COMPOUND_CID))>
0.51452

> <PUBCHEM_ATOM_DEF_STEREO_COUNT>
1

> <PUBCHEM_ATOM_UDEF_STEREO_COUNT>
0

> <PUBCHEM_BONDANNOTATIONS>
13  20  8
13  21  8
18  19  8
20  24  8
21  25  8
24  27  8
25  27  8
26  30  8
26  31  8
30  32  8
31  33  8
32  34  8
33  34  8
9  5  6
7  19  8
7  29  8
8  18  8
8  29  8

> <PUBCHEM_BOND_DEF_STEREO_COUNT>
0

> <PUBCHEM_BOND_UDEF_STEREO_COUNT>
0

> <PUBCHEM_CACTVS_COMPLEXITY>
695

> <PUBCHEM_CACTVS_HBOND_ACCEPTOR>
4

> <PUBCHEM_CACTVS_HBOND_DONOR>
2

> <PUBCHEM_CACTVS_ROTATABLE_BOND>
10

> <PUBCHEM_CACTVS_SUBSKEYS>
AAADceB7uAAAAAAAAAAAAAAAAAAAAWAAAAAwYAAAAAAAAAAB0AAAHgAQAAAADGzBngQ3mJfJlACoAyXzfACCgC23EKAJ2YGoVMiKaDrA2TGXIYhslgLYiWedyKCOAAAAAAAAAAAAAAAAAAAAAAAAAAAAAA==

> <PUBCHEM_CACTVS_TAUTO_COUNT>
11

> <PUBCHEM_CACTVS_TPSA>
104

> <PUBCHEM_COMPONENT_COUNT>
1

> <PUBCHEM_COMPOUND_CANONICALIZED>
1

> <PUBCHEM_COMPOUND_CID>
24793385

> <PUBCHEM_COORDINATE_TYPE>
1
5
255

> <PUBCHEM_EXACT_MASS>
462.226705

> <PUBCHEM_HEAVY_ATOM_COUNT>
34

> <PUBCHEM_ISOTOPIC_ATOM_COUNT>
0

> <PUBCHEM_IUPAC_CAS_NAME>
(2S)-2-[[[5-[[methyl-(phenylmethyl)amino]-oxomethyl]-1H-imidazol-4-yl]-oxomethyl]amino]-3-phenylpropanoic acid tert-butyl ester

> <PUBCHEM_IUPAC_INCHI>
InChI=1S/C26H30N4O4/c1-26(2,3)34-25(33)20(15-18-11-7-5-8-12-18)29-23(31)21-22(28-17-27-21)24(32)30(4)16-19-13-9-6-10-14-19/h5-14,17,20H,15-16H2,1-4H3,(H,27,28)(H,29,31)/t20-/m0/s1

> <PUBCHEM_IUPAC_INCHIKEY>
ZHKCBJBORAYSKM-FQEVSTJZSA-N

> <PUBCHEM_IUPAC_NAME>
tert-butyl (2S)-2-[[5-[benzyl(methyl)carbamoyl]-1H-imidazole-4-carbonyl]amino]-3-phenylpropanoate

> <PUBCHEM_IUPAC_OPENEYE_NAME>
tert-butyl (2S)-2-[[5-[benzyl(methyl)carbamoyl]-1H-imidazole-4-carbonyl]amino]-3-phenyl-propanoate

> <PUBCHEM_IUPAC_SYSTEMATIC_NAME>
tert-butyl (2S)-2-[[5-[methyl-(phenylmethyl)carbamoyl]-1H-imidazol-4-yl]carbonylamino]-3-phenyl-propanoate

> <PUBCHEM_IUPAC_TRADITIONAL_NAME>
(2S)-2-[[5-[benzyl(methyl)carbamoyl]-1H-imidazole-4-carbonyl]amino]-3-phenyl-propionic acid tert-butyl ester

> <PUBCHEM_MOLECULAR_FORMULA>
C26H30N4O4

> <PUBCHEM_MOLECULAR_WEIGHT>
462.5408

> <PUBCHEM_MONOISOTOPIC_WEIGHT>
462.226705

> <PUBCHEM_OPENEYE_CAN_SMILES>
CC(C)(C)OC(=O)C(CC1=CC=CC=C1)NC(=O)C2=C(NC=N2)C(=O)N(C)CC3=CC=CC=C3

> <PUBCHEM_OPENEYE_ISO_SMILES>
CC(C)(C)OC(=O)[C@H](CC1=CC=CC=C1)NC(=O)C2=C(NC=N2)C(=O)N(C)CC3=CC=CC=C3

> <PUBCHEM_TOTAL_CHARGE>
0

> <PUBCHEM_XLOGP3_AA>
3.9

$$$$
Written by BCL::WriteToMDL,684860
MBcorina  10171218483D 1   1.00000     0.00000 
CORINA 3.49 0026  01.06.2011
 42 45  0  0  0  0  0  0  0  0999 V2000
   -0.0169    1.3949    0.0097 N   0  0  0  1  0  3  0  0  0  0  0  0
    0.0021   -0.0041    0.0020 N   0  0  0  1  0  2  0  0  0  0  0  0
    1.5643    3.1428    0.0036 N   0  0  0  1  0  2  0  0  0  0  0  0
   -2.3511    1.8785    0.0467 N   0  0  0  1  0  3  0  0  0  0  0  0
    1.2801    1.8356   -0.0003 C   0  0  0  1  0  3  0  0  0  0  0  0
    2.0930    0.6953   -0.0142 C   0  0  0  1  0  3  0  0  0  0  0  0
   -0.7358    3.6584    0.0321 C   0  0  0  1  0  3  0  0  0  0  0  0
   -1.0428    2.3012    0.0294 C   0  0  0  1  0  3  0  0  0  0  0  0
    1.2445   -0.4189   -0.0121 C   0  0  0  1  0  3  0  0  0  0  0  0
    0.6138    4.0498    0.0172 C   0  0  0  1  0  3  0  0  0  0  0  0
    3.5739    0.6719   -0.0289 C   0  0  0  1  0  3  0  0  0  0  0  0
   -1.8149    4.6748    0.0531 C   0  0  0  1  0  3  0  0  0  0  0  0
    1.6881   -1.8590   -0.0240 C   0  0  0  1  0  4  0  0  0  0  0  0
    0.9719    5.5137    0.0217 C   0  0  0  1  0  4  0  0  0  0  0  0
    4.2768    0.1455    1.0549 C   0  0  0  1  0  3  0  0  0  0  0  0
    4.2712    1.1711   -1.1290 C   0  0  0  1  0  3  0  0  0  0  0  0
   -1.9590    5.5198    1.1525 C   0  0  0  1  0  3  0  0  0  0  0  0
   -2.6858    4.7932   -1.0291 C   0  0  0  1  0  3  0  0  0  0  0  0
    5.6563    0.1266    1.0353 C   0  0  0  1  0  3  0  0  0  0  0  0
    5.6508    1.1466   -1.1368 C   0  0  0  1  0  3  0  0  0  0  0  0
   -2.9650    6.4643    1.1662 C   0  0  0  1  0  3  0  0  0  0  0  0
   -3.6880    5.7415   -1.0042 C   0  0  0  1  0  3  0  0  0  0  0  0
    6.3423    0.6284   -0.0563 C   0  0  0  1  0  3  0  0  0  0  0  0
   -3.8295    6.5737    0.0918 C   0  0  0  1  0  3  0  0  0  0  0  0
    1.7856   -2.2006   -1.0545 H   0  0  0  1  0  1  0  0  0  0  0  0
    2.6502   -1.9471    0.4805 H   0  0  0  1  0  1  0  0  0  0  0  0
    0.9492   -2.4711    0.4932 H   0  0  0  1  0  1  0  0  0  0  0  0
    2.0564    5.6225    0.0123 H   0  0  0  1  0  1  0  0  0  0  0  0
    0.5509    5.9934   -0.8619 H   0  0  0  1  0  1  0  0  0  0  0  0
    0.5672    5.9839    0.9179 H   0  0  0  1  0  1  0  0  0  0  0  0
    3.7423   -0.2462    1.9077 H   0  0  0  1  0  1  0  0  0  0  0  0
    3.7325    1.5756   -1.9732 H   0  0  0  1  0  1  0  0  0  0  0  0
   -2.5545    0.9300    0.0449 H   0  0  0  1  0  1  0  0  0  0  0  0
   -3.0708    2.5287    0.0605 H   0  0  0  1  0  1  0  0  0  0  0  0
   -1.2849    5.4351    1.9920 H   0  0  0  1  0  1  0  0  0  0  0  0
   -2.5761    4.1443   -1.8854 H   0  0  0  1  0  1  0  0  0  0  0  0
    6.2016   -0.2804    1.8739 H   0  0  0  1  0  1  0  0  0  0  0  0
    6.1918    1.5325   -1.9881 H   0  0  0  1  0  1  0  0  0  0  0  0
   -3.0778    7.1192    2.0176 H   0  0  0  1  0  1  0  0  0  0  0  0
   -4.3631    5.8344   -1.8421 H   0  0  0  1  0  1  0  0  0  0  0  0
    7.4222    0.6114   -0.0670 H   0  0  0  1  0  1  0  0  0  0  0  0
   -4.6155    7.3141    0.1071 H   0  0  0  1  0  1  0  0  0  0  0  0
  1  2  1  0  0  0  0
  1  5  1  0  0  0  0
  1  8  1  0  0  0  0
  2  9  2  0  0  0  0
  3  5  1  0  0  0  0
  3 10  2  0  0  0  0
  4  8  1  0  0  0  0
  4 33  1  0  0  0  0
  4 34  1  0  0  0  0
  5  6  2  0  0  0  0
  6  9  1  0  0  0  0
  6 11  1  0  0  0  0
  7  8  2  0  0  0  0
  7 10  1  0  0  0  0
  7 12  1  0  0  0  0
  9 13  1  0  0  0  0
 10 14  1  0  0  0  0
 11 15  2  0  0  0  0
 11 16  1  0  0  0  0
 12 17  2  0  0  0  0
 12 18  1  0  0  0  0
 13 25  1  0  0  0  0
 13 26  1  0  0  0  0
 13 27  1  0  0  0  0
 14 28  1  0  0  0  0
 14 29  1  0  0  0  0
 14 30  1  0  0  0  0
 15 19  1  0  0  0  0
 15 31  1  0  0  0  0
 16 20  2  0  0  0  0
 16 32  1  0  0  0  0
 17 21  1  0  0  0  0
 17 35  1  0  0  0  0
 18 22  2  0  0  0  0
 18 36  1  0  0  0  0
 19 23  2  0  0  0  0
 19 37  1  0  0  0  0
 20 23  1  0  0  0  0
 20 38  1  0  0  0  0
 21 24  2  0  0  0  0
 21 39  1  0  0  0  0
 22 24  1  0  0  0  0
 22 40  1  0  0  0  0
 23 41  1  0  0  0  0
 24 42  1  0  0  0  0
M  END
> <Activity>
5.343

> <Mapped(file=504701.csv.activities,property=Cached(PUBCHEM_COMPOUND_CID))>
5.343

> <PUBCHEM_ATOM_DEF_STEREO_COUNT>
0

> <PUBCHEM_ATOM_UDEF_STEREO_COUNT>
0

> <PUBCHEM_BONDANNOTATIONS>
1  2  8
1  5  8
1  8  8
11  15  8
11  16  8
12  17  8
12  18  8
15  19  8
16  20  8
17  21  8
18  22  8
19  23  8
2  9  8
20  23  8
21  24  8
22  24  8
3  10  8
3  5  8
5  6  8
6  9  8
7  10  8
7  8  8

> <PUBCHEM_BOND_DEF_STEREO_COUNT>
0

> <PUBCHEM_BOND_UDEF_STEREO_COUNT>
0

> <PUBCHEM_CACTVS_COMPLEXITY>
416

> <PUBCHEM_CACTVS_HBOND_ACCEPTOR>
1

> <PUBCHEM_CACTVS_HBOND_DONOR>
1

> <PUBCHEM_CACTVS_ROTATABLE_BOND>
2

> <PUBCHEM_CACTVS_SUBSKEYS>
AAADceB7gAAAAAAAAAAAAAAAAAAAAWAAAAA8YIAAAAAAAFgB9AAAHAAYAAAADAiBHwAzsJ5IEACiAyZiZACShCshAKAdmCAwRJiIKGLA2dGEpAh4iALIyCcQgMAOgAAAAAAAAAAAAAAAAAAAAAAAAAAAAA==

> <PUBCHEM_CACTVS_TAUTO_COUNT>
11

> <PUBCHEM_CACTVS_TPSA>
56.2

> <PUBCHEM_COMPONENT_COUNT>
1

> <PUBCHEM_COMPOUND_CANONICALIZED>
1

> <PUBCHEM_COMPOUND_CID>
684860

> <PUBCHEM_COORDINATE_TYPE>
1
5
255

> <PUBCHEM_EXACT_MASS>
314.153147

> <PUBCHEM_HEAVY_ATOM_COUNT>
24

> <PUBCHEM_ISOTOPIC_ATOM_COUNT>
0

> <PUBCHEM_IUPAC_CAS_NAME>
2,5-dimethyl-3,6-diphenyl-7-pyrazolo[1,5-a]pyrimidinamine

> <PUBCHEM_IUPAC_INCHI>
InChI=1S/C20H18N4/c1-13-17(15-9-5-3-6-10-15)19(21)24-20(22-13)18(14(2)23-24)16-11-7-4-8-12-16/h3-12H,21H2,1-2H3

> <PUBCHEM_IUPAC_INCHIKEY>
COYLEYRJZHTLTR-UHFFFAOYSA-N

> <PUBCHEM_IUPAC_NAME>
2,5-dimethyl-3,6-diphenylpyrazolo[1,5-a]pyrimidin-7-amine

> <PUBCHEM_IUPAC_OPENEYE_NAME>
2,5-dimethyl-3,6-diphenyl-pyrazolo[1,5-a]pyrimidin-7-amine

> <PUBCHEM_IUPAC_SYSTEMATIC_NAME>
2,5-dimethyl-3,6-diphenyl-pyrazolo[1,5-a]pyrimidin-7-amine

> <PUBCHEM_IUPAC_TRADITIONAL_NAME>
(2,5-dimethyl-3,6-diphenyl-pyrazolo[1,5-a]pyrimidin-7-yl)amine

> <PUBCHEM_MOLECULAR_FORMULA>
C20H18N4

> <PUBCHEM_MOLECULAR_WEIGHT>
314.38372

> <PUBCHEM_MONOISOTOPIC_WEIGHT>
314.153147

> <PUBCHEM_OPENEYE_CAN_SMILES>
CC1=NC2=C(C(=NN2C(=C1C3=CC=CC=C3)N)C)C4=CC=CC=C4

> <PUBCHEM_OPENEYE_ISO_SMILES>
CC1=NC2=C(C(=NN2C(=C1C3=CC=CC=C3)N)C)C4=CC=CC=C4

> <PUBCHEM_TOTAL_CHARGE>
0

> <PUBCHEM_XLOGP3_AA>
4

$$$$
Written by BCL::WriteToMDL,7207253
MBcorina  10171218483D 1   1.00000     0.00000 
CORINA 3.49 0026  01.06.2011
 30 32  0  0  0  0  0  0  0  0999 V2000
   -0.0225    1.8097    0.0120 S   0  0  0  1  0  2  0  0  0  0  0  0
    6.5320    4.6218   -0.0386 S   0  0  0  1  0  2  0  0  0  0  0  0
   -0.4127   -3.1659   -0.0116 S   0  0  0  1  0  2  0  0  0  0  0  0
   -2.3454    0.2509    0.0258 O   0  0  0  1  0  1  0  0  0  0  0  0
    3.8630    1.5337   -0.0270 N   0  0  0  1  0  2  0  0  0  0  0  0
    2.6059    1.2728   -0.0160 N   0  0  0  1  0  2  0  0  0  0  0  0
    4.3224    2.7797   -0.0252 C   0  0  0  1  0  3  0  0  0  0  0  0
    0.0021   -0.0041    0.0020 C   0  0  0  1  0  4  0  0  0  0  0  0
    5.7775    3.0330   -0.0387 C   0  0  0  1  0  3  0  0  0  0  0  0
   -1.6509   -1.9176    0.0075 C   0  0  0  1  0  3  0  0  0  0  0  0
   -1.4117   -0.5257    0.0127 C   0  0  0  1  0  3  0  0  0  0  0  0
    1.6887    2.2294   -0.0021 C   0  0  0  1  0  3  0  0  0  0  0  0
    3.4218    3.8537   -0.0108 C   0  0  0  1  0  3  0  0  0  0  0  0
    2.0793    3.5706    0.0009 C   0  0  0  1  0  3  0  0  0  0  0  0
    6.7334    2.0818   -0.0534 C   0  0  0  1  0  3  0  0  0  0  0  0
   -2.8867   -2.5132    0.0158 C   0  0  0  1  0  3  0  0  0  0  0  0
    8.0257    2.5636   -0.0645 C   0  0  0  1  0  3  0  0  0  0  0  0
   -2.8272   -3.8839    0.0072 C   0  0  0  1  0  3  0  0  0  0  0  0
    8.1335    3.8957   -0.0590 C   0  0  0  1  0  3  0  0  0  0  0  0
   -1.5905   -4.4002   -0.0077 C   0  0  0  1  0  3  0  0  0  0  0  0
    0.5123   -0.3556   -0.8948 H   0  0  0  1  0  1  0  0  0  0  0  0
    0.5293   -0.3651    0.8851 H   0  0  0  1  0  1  0  0  0  0  0  0
    3.7744    4.8746   -0.0087 H   0  0  0  1  0  1  0  0  0  0  0  0
    1.3451    4.3626    0.0118 H   0  0  0  1  0  1  0  0  0  0  0  0
    6.5051    1.0263   -0.0559 H   0  0  0  1  0  1  0  0  0  0  0  0
   -3.8135   -1.9588    0.0282 H   0  0  0  1  0  1  0  0  0  0  0  0
    8.8871    1.9123   -0.0770 H   0  0  0  1  0  1  0  0  0  0  0  0
   -3.7128   -4.5020    0.0123 H   0  0  0  1  0  1  0  0  0  0  0  0
    9.0641    4.4437   -0.0665 H   0  0  0  1  0  1  0  0  0  0  0  0
   -1.3690   -5.4572   -0.0163 H   0  0  0  1  0  1  0  0  0  0  0  0
  1  8  1  0  0  0  0
  1 12  1  0  0  0  0
  2  9  1  0  0  0  0
  2 19  1  0  0  0  0
  3 10  1  0  0  0  0
  3 20  1  0  0  0  0
  4 11  2  0  0  0  0
  5  6  1  0  0  0  0
  5  7  2  0  0  0  0
  6 12  2  0  0  0  0
  7  9  1  0  0  0  0
  7 13  1  0  0  0  0
  8 11  1  0  0  0  0
  8 21  1  0  0  0  0
  8 22  1  0  0  0  0
  9 15  2  0  0  0  0
 10 11  1  0  0  0  0
 10 16  2  0  0  0  0
 12 14  1  0  0  0  0
 13 14  2  0  0  0  0
 13 23  1  0  0  0  0
 14 24  1  0  0  0  0
 15 17  1  0  0  0  0
 15 25  1  0  0  0  0
 16 18  1  0  0  0  0
 16 26  1  0  0  0  0
 17 19  2  0  0  0  0
 17 27  1  0  0  0  0
 18 20  2  0  0  0  0
 18 28  1  0  0  0  0
 19 29  1  0  0  0  0
 20 30  1  0  0  0  0
M  END
> <Activity>
2.276

> <Mapped(file=504701.csv.activities,property=Cached(PUBCHEM_COMPOUND_CID))>
2.276

> <PUBCHEM_ATOM_DEF_STEREO_COUNT>
0

> <PUBCHEM_ATOM_UDEF_STEREO_COUNT>
0

> <PUBCHEM_BONDANNOTATIONS>
10  16  8
12  14  8
13  14  8
15  17  8
16  18  8
17  19  8
18  20  8
2  19  8
2  9  8
3  10  8
3  20  8
5  6  8
5  7  8
6  12  8
7  13  8
9  15  8

> <PUBCHEM_BOND_DEF_STEREO_COUNT>
0

> <PUBCHEM_BOND_UDEF_STEREO_COUNT>
0

> <PUBCHEM_CACTVS_COMPLEXITY>
342

> <PUBCHEM_CACTVS_HBOND_ACCEPTOR>
6

> <PUBCHEM_CACTVS_HBOND_DONOR>
0

> <PUBCHEM_CACTVS_ROTATABLE_BOND>
5

> <PUBCHEM_CACTVS_SUBSKEYS>
AAADccBzIABgAAAAAAAAAAAAAAAAASJAAAAsAAAAAAAAAAAB+AAAHgQIAAAACAyF1gCwgZAAAAiuAaRyQACTBIBkChBYmDkwZNgIILKglZGAoQBgiAAoyYcYgIAAAAAAAAAAAAAAAAAAAAAAAAAAAAAAAA==

> <PUBCHEM_CACTVS_TAUTO_COUNT>
2

> <PUBCHEM_CACTVS_TPSA>
125

> <PUBCHEM_COMPONENT_COUNT>
1

> <PUBCHEM_COMPOUND_CANONICALIZED>
1

> <PUBCHEM_COMPOUND_CID>
7207253

> <PUBCHEM_COORDINATE_TYPE>
1
5
255

> <PUBCHEM_EXACT_MASS>
317.995526

> <PUBCHEM_HEAVY_ATOM_COUNT>
20

> <PUBCHEM_ISOTOPIC_ATOM_COUNT>
0

> <PUBCHEM_IUPAC_CAS_NAME>
1-thiophen-2-yl-2-[(6-thiophen-2-yl-3-pyridazinyl)thio]ethanone

> <PUBCHEM_IUPAC_INCHI>
InChI=1S/C14H10N2OS3/c17-11(13-4-2-8-19-13)9-20-14-6-5-10(15-16-14)12-3-1-7-18-12/h1-8H,9H2

> <PUBCHEM_IUPAC_INCHIKEY>
BUEYTYZOCKWHHR-UHFFFAOYSA-N

> <PUBCHEM_IUPAC_NAME>
1-thiophen-2-yl-2-(6-thiophen-2-ylpyridazin-3-yl)sulfanylethanone

> <PUBCHEM_IUPAC_OPENEYE_NAME>
1-(2-thienyl)-2-[6-(2-thienyl)pyridazin-3-yl]sulfanyl-ethanone

> <PUBCHEM_IUPAC_SYSTEMATIC_NAME>
1-thiophen-2-yl-2-(6-thiophen-2-ylpyridazin-3-yl)sulfanyl-ethanone

> <PUBCHEM_IUPAC_TRADITIONAL_NAME>
1-(2-thienyl)-2-[[6-(2-thienyl)pyridazin-3-yl]thio]ethanone

> <PUBCHEM_MOLECULAR_FORMULA>
C14H10N2OS3

> <PUBCHEM_MOLECULAR_WEIGHT>
318.437

> <PUBCHEM_MONOISOTOPIC_WEIGHT>
317.995526

> <PUBCHEM_OPENEYE_CAN_SMILES>
C1=CSC(=C1)C2=NN=C(C=C2)SCC(=O)C3=CC=CS3

> <PUBCHEM_OPENEYE_ISO_SMILES>
C1=CSC(=C1)C2=NN=C(C=C2)SCC(=O)C3=CC=CS3

> <PUBCHEM_TOTAL_CHARGE>
0

> <PUBCHEM_XLOGP3_AA>
3.5

$$$$
Written by BCL::WriteToMDL,3210705
MBcorina  10171218483D 1   1.00000     0.00000 
CORINA 3.49 0026  01.06.2011
 65 68  0  0  0  0  0  0  0  0999 V2000
   -2.2054    0.3689   -1.5071 S   0  0  0  1  0  2  0  0  0  0  0  0
   -4.3605   -1.0758   -0.3481 O   0  0  0  1  0  1  0  0  0  0  0  0
   -1.1701   -0.2083    2.8965 O   0  0  0  1  0  1  0  0  0  0  0  0
    2.8457   -1.2481    0.5170 O   0  0  0  1  0  1  0  0  0  0  0  0
    7.1545   -0.2448    1.3700 O   0  0  0  1  0  2  0  0  0  0  0  0
   -5.3233    0.3343    1.0685 N   0  0  0  1  0  3  0  0  0  0  0  0
   -2.1501   -1.3365    1.2567 N   0  0  0  1  0  3  0  0  0  0  0  0
    3.8256   -0.1199    2.1567 N   0  0  0  1  0  3  0  0  0  0  0  0
    6.2323    0.0932    2.0753 N   0  0  0  1  0  2  0  0  0  0  0  0
   -6.2384    0.8201    0.0327 C   0  0  0  1  0  4  0  0  0  0  0  0
   -7.5156    1.3835    0.6799 C   0  0  0  1  0  4  0  0  0  0  0  0
   -5.5878    1.9836   -0.7438 C   0  0  0  1  0  4  0  0  0  0  0  0
   -7.5967    2.8696    0.2741 C   0  0  0  1  0  4  0  0  0  0  0  0
   -6.7611    2.9541   -1.0274 C   0  0  0  1  0  4  0  0  0  0  0  0
   -4.4178   -0.6196    0.7742 C   0  0  0  1  0  3  0  0  0  0  0  0
   -3.4764   -1.1193    1.8396 C   0  0  0  1  0  4  0  0  0  0  0  0
   -3.9969   -2.4173    2.4012 C   0  0  0  1  0  3  0  0  0  0  0  0
   -2.0126   -2.0962    0.0116 C   0  0  0  1  0  4  0  0  0  0  0  0
   -1.0563   -0.8373    1.8658 C   0  0  0  1  0  3  0  0  0  0  0  0
   -4.5356   -2.4533    3.6738 C   0  0  0  1  0  3  0  0  0  0  0  0
   -3.9409   -3.5709    1.6415 C   0  0  0  1  0  3  0  0  0  0  0  0
    0.3081   -1.0606    1.2661 C   0  0  0  1  0  4  0  0  0  0  0  0
   -1.5063   -1.1870   -1.0783 C   0  0  0  1  0  3  0  0  0  0  0  0
    1.3675   -0.3958    2.1473 C   0  0  0  1  0  4  0  0  0  0  0  0
   -5.0130   -3.6439    4.1889 C   0  0  0  1  0  3  0  0  0  0  0  0
   -4.4183   -4.7615    2.1566 C   0  0  0  1  0  3  0  0  0  0  0  0
   -4.9522   -4.7985    3.4312 C   0  0  0  1  0  3  0  0  0  0  0  0
   -0.4598   -1.4395   -1.8661 C   0  0  0  1  0  3  0  0  0  0  0  0
    2.7319   -0.6191    1.5476 C   0  0  0  1  0  3  0  0  0  0  0  0
   -0.1813   -0.4557   -2.7992 C   0  0  0  1  0  3  0  0  0  0  0  0
   -1.0016    0.5957   -2.7693 C   0  0  0  1  0  3  0  0  0  0  0  0
    5.0886   -0.3267    1.6016 C   0  0  0  1  0  3  0  0  0  0  0  0
    5.3899   -1.0360    0.4086 C   0  0  0  1  0  3  0  0  0  0  0  0
    6.7361   -0.9505    0.3094 C   0  0  0  1  0  3  0  0  0  0  0  0
    7.5976   -1.5340   -0.7807 C   0  0  0  1  0  4  0  0  0  0  0  0
   -6.4922    0.0099   -0.6508 H   0  0  0  1  0  1  0  0  0  0  0  0
   -4.8278    2.4717   -0.1336 H   0  0  0  1  0  1  0  0  0  0  0  0
   -5.1556    1.6243   -1.6778 H   0  0  0  1  0  1  0  0  0  0  0  0
   -8.3895    0.8472    0.3099 H   0  0  0  1  0  1  0  0  0  0  0  0
   -7.4547    1.2955    1.7646 H   0  0  0  1  0  1  0  0  0  0  0  0
   -6.3940    3.9681   -1.1856 H   0  0  0  1  0  1  0  0  0  0  0  0
   -7.3444    2.6153   -1.8836 H   0  0  0  1  0  1  0  0  0  0  0  0
   -8.6306    3.1571    0.0829 H   0  0  0  1  0  1  0  0  0  0  0  0
   -7.1612    3.5009    1.0486 H   0  0  0  1  0  1  0  0  0  0  0  0
   -5.3691    0.6992    1.9661 H   0  0  0  1  0  1  0  0  0  0  0  0
   -3.4060   -0.3804    2.6379 H   0  0  0  1  0  1  0  0  0  0  0  0
   -1.3065   -2.9131    0.1606 H   0  0  0  1  0  1  0  0  0  0  0  0
   -2.9826   -2.5022   -0.2753 H   0  0  0  1  0  1  0  0  0  0  0  0
    0.5067   -2.1305    1.2035 H   0  0  0  1  0  1  0  0  0  0  0  0
    0.3415   -0.6258    0.2671 H   0  0  0  1  0  1  0  0  0  0  0  0
   -4.5831   -1.5512    4.2657 H   0  0  0  1  0  1  0  0  0  0  0  0
   -3.5244   -3.5419    0.6455 H   0  0  0  1  0  1  0  0  0  0  0  0
    1.1688    0.6741    2.2098 H   0  0  0  1  0  1  0  0  0  0  0  0
    1.3341   -0.8306    3.1463 H   0  0  0  1  0  1  0  0  0  0  0  0
   -5.4332   -3.6721    5.1834 H   0  0  0  1  0  1  0  0  0  0  0  0
   -4.3749   -5.6627    1.5630 H   0  0  0  1  0  1  0  0  0  0  0  0
   -5.3248   -5.7288    3.8338 H   0  0  0  1  0  1  0  0  0  0  0  0
    0.1260   -2.3429   -1.7819 H   0  0  0  1  0  1  0  0  0  0  0  0
    0.6382   -0.5334   -3.4983 H   0  0  0  1  0  1  0  0  0  0  0  0
   -0.9368    1.4547   -3.4207 H   0  0  0  1  0  1  0  0  0  0  0  0
    3.7346    0.3831    2.9811 H   0  0  0  1  0  1  0  0  0  0  0  0
    4.7034   -1.5293   -0.2634 H   0  0  0  1  0  1  0  0  0  0  0  0
    8.6431   -1.2971   -0.5836 H   0  0  0  1  0  1  0  0  0  0  0  0
    7.4687   -2.6161   -0.8056 H   0  0  0  1  0  1  0  0  0  0  0  0
    7.3040   -1.1109   -1.7414 H   0  0  0  1  0  1  0  0  0  0  0  0
  1 23  1  0  0  0  0
  1 31  1  0  0  0  0
  2 15  2  0  0  0  0
  3 19  2  0  0  0  0
  4 29  2  0  0  0  0
  5  9  1  0  0  0  0
  5 34  1  0  0  0  0
  6 10  1  0  0  0  0
  6 15  1  0  0  0  0
  6 45  1  0  0  0  0
  7 16  1  0  0  0  0
  7 18  1  0  0  0  0
  7 19  1  0  0  0  0
  8 29  1  0  0  0  0
  8 32  1  0  0  0  0
  8 61  1  0  0  0  0
  9 32  2  0  0  0  0
 10 11  1  0  0  0  0
 10 12  1  0  0  0  0
 10 36  1  0  0  0  0
 11 13  1  0  0  0  0
 11 39  1  0  0  0  0
 11 40  1  0  0  0  0
 12 14  1  0  0  0  0
 12 37  1  0  0  0  0
 12 38  1  0  0  0  0
 13 14  1  0  0  0  0
 13 43  1  0  0  0  0
 13 44  1  0  0  0  0
 14 41  1  0  0  0  0
 14 42  1  0  0  0  0
 15 16  1  0  0  0  0
 16 17  1  0  0  0  0
 16 46  1  0  0  0  0
 17 20  2  0  0  0  0
 17 21  1  0  0  0  0
 18 23  1  0  0  0  0
 18 47  1  0  0  0  0
 18 48  1  0  0  0  0
 19 22  1  0  0  0  0
 20 25  1  0  0  0  0
 20 51  1  0  0  0  0
 21 26  2  0  0  0  0
 21 52  1  0  0  0  0
 22 24  1  0  0  0  0
 22 49  1  0  0  0  0
 22 50  1  0  0  0  0
 23 28  2  0  0  0  0
 24 29  1  0  0  0  0
 24 53  1  0  0  0  0
 24 54  1  0  0  0  0
 25 27  2  0  0  0  0
 25 55  1  0  0  0  0
 26 27  1  0  0  0  0
 26 56  1  0  0  0  0
 27 57  1  0  0  0  0
 28 30  1  0  0  0  0
 28 58  1  0  0  0  0
 30 31  2  0  0  0  0
 30 59  1  0  0  0  0
 31 60  1  0  0  0  0
 32 33  1  0  0  0  0
 33 34  2  0  0  0  0
 33 62  1  0  0  0  0
 34 35  1  0  0  0  0
 35 63  1  0  0  0  0
 35 64  1  0  0  0  0
 35 65  1  0  0  0  0
M  END
> <Activity>
0.31504

> <Mapped(file=504701.csv.activities,property=Cached(PUBCHEM_COMPOUND_CID))>
0.31504

> <PUBCHEM_ATOM_DEF_STEREO_COUNT>
0

> <PUBCHEM_ATOM_UDEF_STEREO_COUNT>
1

> <PUBCHEM_BONDANNOTATIONS>
1  23  8
1  31  8
16  15  3
17  20  8
17  21  8
20  25  8
21  26  8
23  28  8
25  27  8
26  27  8
28  30  8
30  31  8
32  33  8
33  34  8
5  34  8
5  9  8
9  32  8

> <PUBCHEM_BOND_DEF_STEREO_COUNT>
0

> <PUBCHEM_BOND_UDEF_STEREO_COUNT>
0

> <PUBCHEM_CACTVS_COMPLEXITY>
726

> <PUBCHEM_CACTVS_HBOND_ACCEPTOR>
6

> <PUBCHEM_CACTVS_HBOND_DONOR>
2

> <PUBCHEM_CACTVS_ROTATABLE_BOND>
10

> <PUBCHEM_CACTVS_SUBSKEYS>
AAADceB7uABAAAAAAAAAAAAAAAAAAeJEAAAwAAAAAAAAAAAB8AAAHgQUAAAADCzF2gSztZPQAAitAqNycgCDAIAlKhBpmLm+bNqIZDrgnbGUIIhilwroyEcdiICOAAAAAAAAAAAAAAAAAAAAAAAAAAAAAA==

> <PUBCHEM_CACTVS_TAUTO_COUNT>
20

> <PUBCHEM_CACTVS_TPSA>
133

> <PUBCHEM_COMPONENT_COUNT>
1

> <PUBCHEM_COMPOUND_CANONICALIZED>
1

> <PUBCHEM_COMPOUND_CID>
3210705

> <PUBCHEM_COORDINATE_TYPE>
1
5
255

> <PUBCHEM_EXACT_MASS>
494.198776

> <PUBCHEM_HEAVY_ATOM_COUNT>
35

> <PUBCHEM_ISOTOPIC_ATOM_COUNT>
0

> <PUBCHEM_IUPAC_CAS_NAME>
N'-[2-(cyclopentylamino)-2-oxo-1-phenylethyl]-N-(5-methyl-3-isoxazolyl)-N'-(thiophen-2-ylmethyl)butanediamide

> <PUBCHEM_IUPAC_INCHI>
InChI=1S/C26H30N4O4S/c1-18-16-22(29-34-18)28-23(31)13-14-24(32)30(17-21-12-7-15-35-21)25(19-8-3-2-4-9-19)26(33)27-20-10-5-6-11-20/h2-4,7-9,12,15-16,20,25H,5-6,10-11,13-14,17H2,1H3,(H,27,33)(H,28,29,31)

> <PUBCHEM_IUPAC_INCHIKEY>
POZPNDPDKFMYES-UHFFFAOYSA-N

> <PUBCHEM_IUPAC_NAME>
N'-[2-(cyclopentylamino)-2-oxo-1-phenylethyl]-N-(5-methyl-1,2-oxazol-3-yl)-N'-(thiophen-2-ylmethyl)butanediamide

> <PUBCHEM_IUPAC_OPENEYE_NAME>
N'-[2-(cyclopentylamino)-2-oxo-1-phenyl-ethyl]-N-(5-methylisoxazol-3-yl)-N'-(2-thienylmethyl)butanediamide

> <PUBCHEM_IUPAC_SYSTEMATIC_NAME>
N'-[2-(cyclopentylamino)-2-oxidanylidene-1-phenyl-ethyl]-N-(5-methyl-1,2-oxazol-3-yl)-N'-(thiophen-2-ylmethyl)butanediamide

> <PUBCHEM_IUPAC_TRADITIONAL_NAME>
N'-[2-(cyclopentylamino)-2-keto-1-phenyl-ethyl]-N-(5-methylisoxazol-3-yl)-N'-(2-thenyl)succinamide

> <PUBCHEM_MOLECULAR_FORMULA>
C26H30N4O4S

> <PUBCHEM_MOLECULAR_WEIGHT>
494.6058

> <PUBCHEM_MONOISOTOPIC_WEIGHT>
494.198776

> <PUBCHEM_OPENEYE_CAN_SMILES>
CC1=CC(=NO1)NC(=O)CCC(=O)N(CC2=CC=CS2)C(C3=CC=CC=C3)C(=O)NC4CCCC4

> <PUBCHEM_OPENEYE_ISO_SMILES>
CC1=CC(=NO1)NC(=O)CCC(=O)N(CC2=CC=CS2)C(C3=CC=CC=C3)C(=O)NC4CCCC4

> <PUBCHEM_TOTAL_CHARGE>
0

> <PUBCHEM_XLOGP3_AA>
3.2

$$$$
Written by BCL::WriteToMDL,647689
MBcorina  10171218483D 1   1.00000     0.00000 
CORINA 3.49 0026  01.06.2011
 45 48  0  0  0  0  0  0  0  0999 V2000
   -0.7175    1.2387   -0.5899 O   0  0  0  1  0  2  0  0  0  0  0  0
    6.7451   -2.8741   -7.7014 O   0  0  0  1  0  2  0  0  0  0  0  0
    3.4141   -1.6925   -7.1450 O   0  0  0  1  0  1  0  0  0  0  0  0
    1.5429   -0.0776   -1.6124 N   0  0  0  1  0  3  0  0  0  0  0  0
    5.0241   -1.7707   -5.6158 N   0  0  0  1  0  3  0  0  0  0  0  0
    0.1960   -0.6303   -1.8170 C   0  0  0  1  0  4  0  0  0  0  0  0
    1.4981    1.3900   -1.5394 C   0  0  0  1  0  4  0  0  0  0  0  0
   -0.7110   -0.1894   -0.6651 C   0  0  0  1  0  4  0  0  0  0  0  0
    0.5780    1.8107   -0.3904 C   0  0  0  1  0  4  0  0  0  0  0  0
    2.4174   -0.5032   -2.6180 C   0  0  0  1  0  3  0  0  0  0  0  0
    3.7433   -0.0896   -2.6060 C   0  0  0  1  0  3  0  0  0  0  0  0
    1.9613   -1.3438   -3.6251 C   0  0  0  1  0  3  0  0  0  0  0  0
    4.1487   -1.3451   -4.6088 C   0  0  0  1  0  3  0  0  0  0  0  0
    5.1034   -2.7729   -9.1842 C   0  0  0  1  0  3  0  0  0  0  0  0
    4.6063   -0.5096   -3.5984 C   0  0  0  1  0  3  0  0  0  0  0  0
    2.8245   -1.7637   -4.6174 C   0  0  0  1  0  3  0  0  0  0  0  0
    6.2950   -3.3191   -9.8327 C   0  0  0  1  0  3  0  0  0  0  0  0
    5.4552   -2.5284   -7.8953 C   0  0  0  1  0  3  0  0  0  0  0  0
    7.2892   -3.3535   -8.8368 C   0  0  0  1  0  3  0  0  0  0  0  0
    4.5652   -1.9718   -6.8670 C   0  0  0  1  0  3  0  0  0  0  0  0
    6.5833   -3.7621  -11.1255 C   0  0  0  1  0  3  0  0  0  0  0  0
    3.7580   -2.5295   -9.8180 C   0  0  0  1  0  4  0  0  0  0  0  0
    8.5535   -3.8330   -9.1583 C   0  0  0  1  0  3  0  0  0  0  0  0
    7.8337   -4.2294  -11.4182 C   0  0  0  1  0  3  0  0  0  0  0  0
    8.8176   -4.2663  -10.4399 C   0  0  0  1  0  3  0  0  0  0  0  0
    2.5018    1.7764   -1.3621 H   0  0  0  1  0  1  0  0  0  0  0  0
    1.1142    1.7896   -2.4781 H   0  0  0  1  0  1  0  0  0  0  0  0
   -0.2088   -0.2631   -2.7600 H   0  0  0  1  0  1  0  0  0  0  0  0
    0.2492   -1.7187   -1.8422 H   0  0  0  1  0  1  0  0  0  0  0  0
    0.4967    2.8974   -0.3684 H   0  0  0  1  0  1  0  0  0  0  0  0
    0.9905    1.4567    0.5544 H   0  0  0  1  0  1  0  0  0  0  0  0
   -0.3360   -0.6015    0.2717 H   0  0  0  1  0  1  0  0  0  0  0  0
   -1.7246   -0.5492   -0.8418 H   0  0  0  1  0  1  0  0  0  0  0  0
    4.0991    0.5608   -1.8206 H   0  0  0  1  0  1  0  0  0  0  0  0
    0.9316   -1.6693   -3.6318 H   0  0  0  1  0  1  0  0  0  0  0  0
    5.6373   -0.1880   -3.5891 H   0  0  0  1  0  1  0  0  0  0  0  0
    2.4699   -2.4176   -5.4004 H   0  0  0  1  0  1  0  0  0  0  0  0
    5.9606   -1.9208   -5.4127 H   0  0  0  1  0  1  0  0  0  0  0  0
    5.8212   -3.7362  -11.8903 H   0  0  0  1  0  1  0  0  0  0  0  0
    3.1395   -3.4207   -9.7112 H   0  0  0  1  0  1  0  0  0  0  0  0
    3.2710   -1.6881   -9.3251 H   0  0  0  1  0  1  0  0  0  0  0  0
    3.8903   -2.3038  -10.8762 H   0  0  0  1  0  1  0  0  0  0  0  0
    9.3274   -3.8657   -8.4057 H   0  0  0  1  0  1  0  0  0  0  0  0
    8.0579   -4.5723  -12.4175 H   0  0  0  1  0  1  0  0  0  0  0  0
    9.8014   -4.6379  -10.6858 H   0  0  0  1  0  1  0  0  0  0  0  0
  1  8  1  0  0  0  0
  1  9  1  0  0  0  0
  2 18  1  0  0  0  0
  2 19  1  0  0  0  0
  3 20  2  0  0  0  0
  4  6  1  0  0  0  0
  4  7  1  0  0  0  0
  4 10  1  0  0  0  0
  5 13  1  0  0  0  0
  5 20  1  0  0  0  0
  5 38  1  0  0  0  0
  6  8  1  0  0  0  0
  6 28  1  0  0  0  0
  6 29  1  0  0  0  0
  7  9  1  0  0  0  0
  7 26  1  0  0  0  0
  7 27  1  0  0  0  0
  8 32  1  0  0  0  0
  8 33  1  0  0  0  0
  9 30  1  0  0  0  0
  9 31  1  0  0  0  0
 10 11  2  0  0  0  0
 10 12  1  0  0  0  0
 11 15  1  0  0  0  0
 11 34  1  0  0  0  0
 12 16  2  0  0  0  0
 12 35  1  0  0  0  0
 13 15  2  0  0  0  0
 13 16  1  0  0  0  0
 14 17  1  0  0  0  0
 14 18  2  0  0  0  0
 14 22  1  0  0  0  0
 15 36  1  0  0  0  0
 16 37  1  0  0  0  0
 17 19  1  0  0  0  0
 17 21  2  0  0  0  0
 18 20  1  0  0  0  0
 19 23  2  0  0  0  0
 21 24  1  0  0  0  0
 21 39  1  0  0  0  0
 22 40  1  0  0  0  0
 22 41  1  0  0  0  0
 22 42  1  0  0  0  0
 23 25  1  0  0  0  0
 23 43  1  0  0  0  0
 24 25  2  0  0  0  0
 24 44  1  0  0  0  0
 25 45  1  0  0  0  0
M  END
> <Activity>
0.27696

> <Mapped(file=504701.csv.activities,property=Cached(PUBCHEM_COMPOUND_CID))>
0.27696

> <PUBCHEM_ATOM_DEF_STEREO_COUNT>
0

> <PUBCHEM_ATOM_UDEF_STEREO_COUNT>
0

> <PUBCHEM_BONDANNOTATIONS>
10  11  8
10  12  8
11  15  8
12  16  8
13  15  8
13  16  8
14  17  8
14  18  8
17  19  8
17  21  8
19  23  8
2  18  8
2  19  8
21  24  8
23  25  8
24  25  8

> <PUBCHEM_BOND_DEF_STEREO_COUNT>
0

> <PUBCHEM_BOND_UDEF_STEREO_COUNT>
0

> <PUBCHEM_CACTVS_COMPLEXITY>
458

> <PUBCHEM_CACTVS_HBOND_ACCEPTOR>
4

> <PUBCHEM_CACTVS_HBOND_DONOR>
1

> <PUBCHEM_CACTVS_ROTATABLE_BOND>
3

> <PUBCHEM_CACTVS_SUBSKEYS>
AAADceB7MAAAAAAAAAAAAAAAAAAAASAAAAA8YIAAAAAAAEgB9AAAHgAQAAAADAzhmAYyxsPABECIAqVSUAKCCAAlIgAIiAHObMgOJjLEtb+HOSjk1BHY6YeY3+LugACAAAAIAAAAAQAAABAAAAAAAAAAAA==

> <PUBCHEM_CACTVS_TAUTO_COUNT>
2

> <PUBCHEM_CACTVS_TPSA>
54.7

> <PUBCHEM_COMPONENT_COUNT>
1

> <PUBCHEM_COMPOUND_CANONICALIZED>
1

> <PUBCHEM_COMPOUND_CID>
647689

> <PUBCHEM_COORDINATE_TYPE>
1
5
255

> <PUBCHEM_EXACT_MASS>
336.147393

> <PUBCHEM_HEAVY_ATOM_COUNT>
25

> <PUBCHEM_ISOTOPIC_ATOM_COUNT>
0

> <PUBCHEM_IUPAC_CAS_NAME>
3-methyl-N-[4-(4-morpholinyl)phenyl]-2-benzofurancarboxamide

> <PUBCHEM_IUPAC_INCHI>
InChI=1S/C20H20N2O3/c1-14-17-4-2-3-5-18(17)25-19(14)20(23)21-15-6-8-16(9-7-15)22-10-12-24-13-11-22/h2-9H,10-13H2,1H3,(H,21,23)

> <PUBCHEM_IUPAC_INCHIKEY>
AELDAMOGYZQRRC-UHFFFAOYSA-N

> <PUBCHEM_IUPAC_NAME>
3-methyl-N-(4-morpholin-4-ylphenyl)-1-benzofuran-2-carboxamide

> <PUBCHEM_IUPAC_OPENEYE_NAME>
3-methyl-N-(4-morpholinophenyl)benzofuran-2-carboxamide

> <PUBCHEM_IUPAC_SYSTEMATIC_NAME>
3-methyl-N-(4-morpholin-4-ylphenyl)-1-benzofuran-2-carboxamide

> <PUBCHEM_IUPAC_TRADITIONAL_NAME>
3-methyl-N-(4-morpholinophenyl)coumarilamide

> <PUBCHEM_MOLECULAR_FORMULA>
C20H20N2O3

> <PUBCHEM_MOLECULAR_WEIGHT>
336.3844

> <PUBCHEM_MONOISOTOPIC_WEIGHT>
336.147393

> <PUBCHEM_OPENEYE_CAN_SMILES>
CC1=C(OC2=CC=CC=C12)C(=O)NC3=CC=C(C=C3)N4CCOCC4

> <PUBCHEM_OPENEYE_ISO_SMILES>
CC1=C(OC2=CC=CC=C12)C(=O)NC3=CC=C(C=C3)N4CCOCC4

> <PUBCHEM_TOTAL_CHARGE>
0

> <PUBCHEM_XLOGP3_AA>
3.6

$$$$
Written by BCL::WriteToMDL,687093
MBcorina  10171218483D 1   1.00000     0.00000 
CORINA 3.49 0026  01.06.2011
 26 28  0  0  0  0  0  0  0  0999 V2000
    2.6897    3.4248   -0.0052 Br  0  0  0  1  0  1  0  0  0  0  0  0
   -0.0218    1.7540    0.0117 S   0  0  0  1  0  2  0  0  0  0  0  0
   -2.7505    1.0250    0.0344 O   0  0  0  1  0  2  0  0  0  0  0  0
   -1.0492   -2.0839    0.0004 O   0  0  0  1  0  1  0  0  0  0  0  0
   -3.8152   -2.3852    0.0258 N   0  0  0  1  0  3  0  0  0  0  0  0
   -4.7304    0.0011    0.0474 C   0  0  0  1  0  3  0  0  0  0  0  0
   -3.6638   -1.0079    0.0319 C   0  0  0  1  0  3  0  0  0  0  0  0
   -4.0800    1.2476    0.0481 C   0  0  0  1  0  3  0  0  0  0  0  0
   -2.4788   -0.2997    0.0246 C   0  0  0  1  0  3  0  0  0  0  0  0
   -6.1240   -0.0626    0.0594 C   0  0  0  1  0  3  0  0  0  0  0  0
   -1.1815   -0.8712    0.0087 C   0  0  0  1  0  3  0  0  0  0  0  0
   -4.8441    2.4089    0.0620 C   0  0  0  1  0  3  0  0  0  0  0  0
    0.0021   -0.0041    0.0020 C   0  0  0  1  0  3  0  0  0  0  0  0
   -6.8556    1.0924    0.0745 C   0  0  0  1  0  3  0  0  0  0  0  0
   -6.2202    2.3256    0.0748 C   0  0  0  1  0  3  0  0  0  0  0  0
    1.2995   -0.4338   -0.0127 C   0  0  0  1  0  3  0  0  0  0  0  0
    2.2127    0.5940   -0.0159 C   0  0  0  1  0  3  0  0  0  0  0  0
    1.6829    1.8241   -0.0042 C   0  0  0  1  0  3  0  0  0  0  0  0
   -6.6229   -1.0204    0.0586 H   0  0  0  1  0  1  0  0  0  0  0  0
   -4.3606    3.3746    0.0631 H   0  0  0  1  0  1  0  0  0  0  0  0
   -7.9345    1.0443    0.0838 H   0  0  0  1  0  1  0  0  0  0  0  0
   -6.8100    3.2303    0.0856 H   0  0  0  1  0  1  0  0  0  0  0  0
   -4.7032   -2.7755    0.0320 H   0  0  0  1  0  1  0  0  0  0  0  0
   -3.0332   -2.9591    0.0154 H   0  0  0  1  0  1  0  0  0  0  0  0
    1.5795   -1.4768   -0.0210 H   0  0  0  1  0  1  0  0  0  0  0  0
    3.2789    0.4221   -0.0266 H   0  0  0  1  0  1  0  0  0  0  0  0
  1 18  1  0  0  0  0
  2 13  1  0  0  0  0
  2 18  1  0  0  0  0
  3  8  1  0  0  0  0
  3  9  1  0  0  0  0
  4 11  2  0  0  0  0
  5  7  1  0  0  0  0
  5 23  1  0  0  0  0
  5 24  1  0  0  0  0
  6  7  1  0  0  0  0
  6  8  1  0  0  0  0
  6 10  2  0  0  0  0
  7  9  2  0  0  0  0
  8 12  2  0  0  0  0
  9 11  1  0  0  0  0
 10 14  1  0  0  0  0
 10 19  1  0  0  0  0
 11 13  1  0  0  0  0
 12 15  1  0  0  0  0
 12 20  1  0  0  0  0
 13 16  2  0  0  0  0
 14 15  2  0  0  0  0
 14 21  1  0  0  0  0
 15 22  1  0  0  0  0
 16 17  1  0  0  0  0
 16 25  1  0  0  0  0
 17 18  2  0  0  0  0
 17 26  1  0  0  0  0
M  END
> <Activity>
6.69

> <Mapped(file=504701.csv.activities,property=Cached(PUBCHEM_COMPOUND_CID))>
6.69

> <PUBCHEM_ATOM_DEF_STEREO_COUNT>
0

> <PUBCHEM_ATOM_UDEF_STEREO_COUNT>
0

> <PUBCHEM_BONDANNOTATIONS>
10  14  8
12  15  8
13  16  8
14  15  8
16  17  8
17  18  8
2  13  8
2  18  8
3  8  8
3  9  8
6  10  8
6  7  8
6  8  8
7  9  8
8  12  8

> <PUBCHEM_BOND_DEF_STEREO_COUNT>
0

> <PUBCHEM_BOND_UDEF_STEREO_COUNT>
0

> <PUBCHEM_CACTVS_COMPLEXITY>
341

> <PUBCHEM_CACTVS_HBOND_ACCEPTOR>
4

> <PUBCHEM_CACTVS_HBOND_DONOR>
1

> <PUBCHEM_CACTVS_ROTATABLE_BOND>
2

> <PUBCHEM_CACTVS_SUBSKEYS>
AAADccByMABAEAAAAAAAAAAAAAAAASJAAAAwAAAAAAAAAEgB/AAAHgRQAAABLAyB2AAwx8BABEiMAqRSQAKDCIAkKBRIiBnHTOgOJjqktZ+DOaDmwBko69eYzuDuAAAAAAAIAAAAAAAAABAAAAAAAAAAAA==

> <PUBCHEM_CACTVS_TAUTO_COUNT>
3

> <PUBCHEM_CACTVS_TPSA>
84.5

> <PUBCHEM_COMPONENT_COUNT>
1

> <PUBCHEM_COMPOUND_CANONICALIZED>
1

> <PUBCHEM_COMPOUND_CID>
687093

> <PUBCHEM_COORDINATE_TYPE>
1
5
255

> <PUBCHEM_EXACT_MASS>
320.945912

> <PUBCHEM_HEAVY_ATOM_COUNT>
18

> <PUBCHEM_ISOTOPIC_ATOM_COUNT>
0

> <PUBCHEM_IUPAC_CAS_NAME>
(3-amino-2-benzofuranyl)-(5-bromo-2-thiophenyl)methanone

> <PUBCHEM_IUPAC_INCHI>
InChI=1S/C13H8BrNO2S/c14-10-6-5-9(18-10)12(16)13-11(15)7-3-1-2-4-8(7)17-13/h1-6H,15H2

> <PUBCHEM_IUPAC_INCHIKEY>
UHWVSUDPAPFTIL-UHFFFAOYSA-N

> <PUBCHEM_IUPAC_NAME>
(3-amino-1-benzofuran-2-yl)-(5-bromothiophen-2-yl)methanone

> <PUBCHEM_IUPAC_OPENEYE_NAME>
(3-aminobenzofuran-2-yl)-(5-bromo-2-thienyl)methanone

> <PUBCHEM_IUPAC_SYSTEMATIC_NAME>
(3-azanyl-1-benzofuran-2-yl)-(5-bromanylthiophen-2-yl)methanone

> <PUBCHEM_IUPAC_TRADITIONAL_NAME>
(3-aminobenzofuran-2-yl)-(5-bromo-2-thienyl)methanone

> <PUBCHEM_MOLECULAR_FORMULA>
C13H8BrNO2S

> <PUBCHEM_MOLECULAR_WEIGHT>
322.17712

> <PUBCHEM_MONOISOTOPIC_WEIGHT>
320.945912

> <PUBCHEM_OPENEYE_CAN_SMILES>
C1=CC=C2C(=C1)C(=C(O2)C(=O)C3=CC=C(S3)Br)N

> <PUBCHEM_OPENEYE_ISO_SMILES>
C1=CC=C2C(=C1)C(=C(O2)C(=O)C3=CC=C(S3)Br)N

> <PUBCHEM_TOTAL_CHARGE>
0

> <PUBCHEM_XLOGP3_AA>
4.9

$$$$
Written by BCL::WriteToMDL,7189883
MBcorina  10171218483D 1   1.00000     0.00000 
CORINA 3.49 0026  01.06.2011
 38 41  0  0  0  0  0  0  0  0999 V2000
   -0.0218    1.7579    0.0117 S   0  0  0  1  0  2  0  0  0  0  0  0
   -1.7860   -3.1805    0.0043 O   0  0  0  1  0  2  0  0  0  0  0  0
    0.8568   -4.0574   -0.0315 O   0  0  0  1  0  2  0  0  0  0  0  0
    6.6729    2.7997   -0.0457 O   0  0  0  1  0  2  0  0  0  0  0  0
    4.3877    1.7763   -0.0303 O   0  0  0  1  0  1  0  0  0  0  0  0
    2.2097    0.5984   -0.0158 N   0  0  0  1  0  2  0  0  0  0  0  0
    2.5018    2.9494   -0.0060 N   0  0  0  1  0  3  0  0  0  0  0  0
   -0.7570   -2.2883   -0.0032 C   0  0  0  1  0  3  0  0  0  0  0  0
    0.5669   -2.7254   -0.0191 C   0  0  0  1  0  3  0  0  0  0  0  0
    0.0021   -0.0041    0.0020 C   0  0  0  1  0  3  0  0  0  0  0  0
    1.3339   -0.4274   -0.0130 C   0  0  0  1  0  3  0  0  0  0  0  0
   -1.0339   -0.9347    0.0070 C   0  0  0  1  0  3  0  0  0  0  0  0
    1.5989   -1.8129   -0.0235 C   0  0  0  1  0  3  0  0  0  0  0  0
   -1.4758   -4.5243   -0.3798 C   0  0  0  1  0  4  0  0  0  0  0  0
   -0.1953   -4.9489    0.3519 C   0  0  0  1  0  4  0  0  0  0  0  0
    1.7357    1.7956   -0.0049 C   0  0  0  1  0  3  0  0  0  0  0  0
    4.6627    4.0938   -0.0204 C   0  0  0  1  0  3  0  0  0  0  0  0
    3.8469    2.8652   -0.0193 C   0  0  0  1  0  3  0  0  0  0  0  0
    6.0622    4.0109   -0.0343 C   0  0  0  1  0  3  0  0  0  0  0  0
    4.0455    5.3470   -0.0136 C   0  0  0  1  0  3  0  0  0  0  0  0
    6.8192    5.1726   -0.0357 C   0  0  0  1  0  3  0  0  0  0  0  0
    4.8137    6.4913   -0.0153 C   0  0  0  1  0  3  0  0  0  0  0  0
    6.1960    6.4050   -0.0236 C   0  0  0  1  0  3  0  0  0  0  0  0
    8.1019    2.7937   -0.0594 C   0  0  0  1  0  4  0  0  0  0  0  0
   -2.0595   -0.5965    0.0184 H   0  0  0  1  0  1  0  0  0  0  0  0
    2.6210   -2.1617   -0.0344 H   0  0  0  1  0  1  0  0  0  0  0  0
   -2.2958   -5.1854   -0.0996 H   0  0  0  1  0  1  0  0  0  0  0  0
   -1.3165   -4.5713   -1.4571 H   0  0  0  1  0  1  0  0  0  0  0  0
    0.0670   -5.9691    0.0716 H   0  0  0  1  0  1  0  0  0  0  0  0
   -0.3513   -4.8917    1.4292 H   0  0  0  1  0  1  0  0  0  0  0  0
    2.0703    3.8181    0.0028 H   0  0  0  1  0  1  0  0  0  0  0  0
    2.9679    5.4190   -0.0075 H   0  0  0  1  0  1  0  0  0  0  0  0
    7.8975    5.1136   -0.0460 H   0  0  0  1  0  1  0  0  0  0  0  0
    4.3355    7.4596   -0.0100 H   0  0  0  1  0  1  0  0  0  0  0  0
    6.7901    7.3069   -0.0248 H   0  0  0  1  0  1  0  0  0  0  0  0
    8.4588    3.3101   -0.9505 H   0  0  0  1  0  1  0  0  0  0  0  0
    8.4759    3.3019    0.8294 H   0  0  0  1  0  1  0  0  0  0  0  0
    8.4609    1.7646   -0.0676 H   0  0  0  1  0  1  0  0  0  0  0  0
  1 10  1  0  0  0  0
  1 16  1  0  0  0  0
  2  8  1  0  0  0  0
  2 14  1  0  0  0  0
  3  9  1  0  0  0  0
  3 15  1  0  0  0  0
  4 19  1  0  0  0  0
  4 24  1  0  0  0  0
  5 18  2  0  0  0  0
  6 11  1  0  0  0  0
  6 16  2  0  0  0  0
  7 16  1  0  0  0  0
  7 18  1  0  0  0  0
  7 31  1  0  0  0  0
  8  9  2  0  0  0  0
  8 12  1  0  0  0  0
  9 13  1  0  0  0  0
 10 11  1  0  0  0  0
 10 12  2  0  0  0  0
 11 13  2  0  0  0  0
 12 25  1  0  0  0  0
 13 26  1  0  0  0  0
 14 15  1  0  0  0  0
 14 27  1  0  0  0  0
 14 28  1  0  0  0  0
 15 29  1  0  0  0  0
 15 30  1  0  0  0  0
 17 18  1  0  0  0  0
 17 19  1  0  0  0  0
 17 20  2  0  0  0  0
 19 21  2  0  0  0  0
 20 22  1  0  0  0  0
 20 32  1  0  0  0  0
 21 23  1  0  0  0  0
 21 33  1  0  0  0  0
 22 23  2  0  0  0  0
 22 34  1  0  0  0  0
 23 35  1  0  0  0  0
 24 36  1  0  0  0  0
 24 37  1  0  0  0  0
 24 38  1  0  0  0  0
M  END
> <Activity>
1.952

> <Mapped(file=504701.csv.activities,property=Cached(PUBCHEM_COMPOUND_CID))>
1.952

> <PUBCHEM_ATOM_DEF_STEREO_COUNT>
0

> <PUBCHEM_ATOM_UDEF_STEREO_COUNT>
0

> <PUBCHEM_BONDANNOTATIONS>
1  10  8
1  16  8
10  11  8
10  12  8
11  13  8
17  19  8
17  20  8
19  21  8
20  22  8
21  23  8
22  23  8
6  11  8
6  16  8
8  12  8
8  9  8
9  13  8

> <PUBCHEM_BOND_DEF_STEREO_COUNT>
0

> <PUBCHEM_BOND_UDEF_STEREO_COUNT>
0

> <PUBCHEM_CACTVS_COMPLEXITY>
466

> <PUBCHEM_CACTVS_HBOND_ACCEPTOR>
5

> <PUBCHEM_CACTVS_HBOND_DONOR>
1

> <PUBCHEM_CACTVS_ROTATABLE_BOND>
3

> <PUBCHEM_CACTVS_SUBSKEYS>
AAADccB7OABAAAAAAAAAAAAAAAAAAWAAAAA0YIAAAAAAAFiR9AAAHgQQAAAADAyh3gIz17LIFAisAyVydACD+KllKjlJmD027NiNJrbkvZuGOWru4RtK6ae42COOAMAABgAIQQABgAAMABCCAAAAAAAAAA==

> <PUBCHEM_CACTVS_TAUTO_COUNT>
3

> <PUBCHEM_CACTVS_TPSA>
97.9

> <PUBCHEM_COMPONENT_COUNT>
1

> <PUBCHEM_COMPOUND_CANONICALIZED>
1

> <PUBCHEM_COMPOUND_CID>
7189883

> <PUBCHEM_COORDINATE_TYPE>
1
5
255

> <PUBCHEM_EXACT_MASS>
342.067428

> <PUBCHEM_HEAVY_ATOM_COUNT>
24

> <PUBCHEM_ISOTOPIC_ATOM_COUNT>
0

> <PUBCHEM_IUPAC_CAS_NAME>
N-(6,7-dihydro-[1,4]dioxino[2,3-f][1,3]benzothiazol-2-yl)-2-methoxybenzamide

> <PUBCHEM_IUPAC_INCHI>
InChI=1S/C17H14N2O4S/c1-21-12-5-3-2-4-10(12)16(20)19-17-18-11-8-13-14(9-15(11)24-17)23-7-6-22-13/h2-5,8-9H,6-7H2,1H3,(H,18,19,20)

> <PUBCHEM_IUPAC_INCHIKEY>
RXKONCCSUNTPRJ-UHFFFAOYSA-N

> <PUBCHEM_IUPAC_NAME>
N-(6,7-dihydro-[1,4]dioxino[2,3-f][1,3]benzothiazol-2-yl)-2-methoxybenzamide

> <PUBCHEM_IUPAC_OPENEYE_NAME>
N-(6,7-dihydro-[1,4]dioxino[2,3-f][1,3]benzothiazol-2-yl)-2-methoxy-benzamide

> <PUBCHEM_IUPAC_SYSTEMATIC_NAME>
N-(6,7-dihydro-[1,4]dioxino[2,3-f][1,3]benzothiazol-2-yl)-2-methoxy-benzamide

> <PUBCHEM_IUPAC_TRADITIONAL_NAME>
N-(6,7-dihydro-[1,4]dioxino[2,3-f][1,3]benzothiazol-2-yl)-2-methoxy-benzamide

> <PUBCHEM_MOLECULAR_FORMULA>
C17H14N2O4S

> <PUBCHEM_MOLECULAR_WEIGHT>
342.36906

> <PUBCHEM_MONOISOTOPIC_WEIGHT>
342.067428

> <PUBCHEM_OPENEYE_CAN_SMILES>
COC1=CC=CC=C1C(=O)NC2=NC3=CC4=C(C=C3S2)OCCO4

> <PUBCHEM_OPENEYE_ISO_SMILES>
COC1=CC=CC=C1C(=O)NC2=NC3=CC4=C(C=C3S2)OCCO4

> <PUBCHEM_TOTAL_CHARGE>
0

> <PUBCHEM_XLOGP3_AA>
3.2

$$$$
Written by BCL::WriteToMDL,1228660
MBcorina  10171218483D 1   1.00000     0.00000 
CORINA 3.49 0026  01.06.2011
 39 42  0  0  0  0  0  0  0  0999 V2000
   -0.0218    1.7577    0.0117 S   0  0  0  1  0  2  0  0  0  0  0  0
    5.3287    7.2801   -0.0096 O   0  0  0  1  0  2  0  0  0  0  0  0
    7.0902    5.8554   -0.0345 O   0  0  0  1  0  2  0  0  0  0  0  0
    1.0373    4.3442    0.0155 O   0  0  0  1  0  1  0  0  0  0  0  0
    1.1607   -0.6320   -0.0124 N   0  0  0  1  0  2  0  0  0  0  0  0
    0.0336   -2.7335   -0.0120 C   0  0  0  1  0  3  0  0  0  0  0  0
   -1.2098   -2.0676    0.0039 C   0  0  0  1  0  3  0  0  0  0  0  0
    3.3521    4.1196   -0.0078 C   0  0  0  1  0  3  0  0  0  0  0  0
    1.2254   -1.9685   -0.0198 C   0  0  0  1  0  3  0  0  0  0  0  0
    4.8542    5.9998   -0.0118 C   0  0  0  1  0  3  0  0  0  0  0  0
    5.9407    5.1227   -0.0269 C   0  0  0  1  0  3  0  0  0  0  0  0
    3.5665    5.5034   -0.0024 C   0  0  0  1  0  3  0  0  0  0  0  0
   -1.2128   -0.7059    0.0103 C   0  0  0  1  0  3  0  0  0  0  0  0
    0.0021   -0.0041    0.0020 C   0  0  0  1  0  3  0  0  0  0  0  0
    1.9840    3.5860    0.0024 C   0  0  0  1  0  3  0  0  0  0  0  0
    1.7562    2.0963   -0.0035 C   0  0  0  1  0  4  0  0  0  0  0  0
    4.4466    3.2465   -0.0219 C   0  0  0  1  0  3  0  0  0  0  0  0
    5.7277    3.7497   -0.0318 C   0  0  0  1  0  3  0  0  0  0  0  0
    0.1091   -4.1343   -0.0197 C   0  0  0  1  0  3  0  0  0  0  0  0
   -2.5018   -2.8433    0.0125 C   0  0  0  1  0  4  0  0  0  0  0  0
    2.4637   -2.6322   -0.0356 C   0  0  0  1  0  3  0  0  0  0  0  0
    6.7082    7.1770    0.3896 C   0  0  0  1  0  4  0  0  0  0  0  0
    1.3278   -4.7435   -0.0356 C   0  0  0  1  0  3  0  0  0  0  0  0
    2.5009   -3.9935   -0.0433 C   0  0  0  1  0  3  0  0  0  0  0  0
    2.7255    6.1810    0.0087 H   0  0  0  1  0  1  0  0  0  0  0  0
   -2.1488   -0.1671    0.0221 H   0  0  0  1  0  1  0  0  0  0  0  0
    2.2177    1.6547    0.8798 H   0  0  0  1  0  1  0  0  0  0  0  0
    2.2007    1.6643   -0.9001 H   0  0  0  1  0  1  0  0  0  0  0  0
    4.2856    2.1786   -0.0255 H   0  0  0  1  0  1  0  0  0  0  0  0
    6.5707    3.0746   -0.0436 H   0  0  0  1  0  1  0  0  0  0  0  0
   -0.7939   -4.7267   -0.0129 H   0  0  0  1  0  1  0  0  0  0  0  0
   -2.8031   -3.0359    1.0422 H   0  0  0  1  0  1  0  0  0  0  0  0
   -3.2764   -2.2646   -0.4906 H   0  0  0  1  0  1  0  0  0  0  0  0
   -2.3603   -3.7906   -0.5079 H   0  0  0  1  0  1  0  0  0  0  0  0
    3.3826   -2.0649   -0.0421 H   0  0  0  1  0  1  0  0  0  0  0  0
    7.3108    7.9308   -0.1171 H   0  0  0  1  0  1  0  0  0  0  0  0
    6.8020    7.2741    1.4712 H   0  0  0  1  0  1  0  0  0  0  0  0
    1.3846   -5.8220   -0.0416 H   0  0  0  1  0  1  0  0  0  0  0  0
    3.4551   -4.4991   -0.0559 H   0  0  0  1  0  1  0  0  0  0  0  0
  1 14  1  0  0  0  0
  1 16  1  0  0  0  0
  2 10  1  0  0  0  0
  2 22  1  0  0  0  0
  3 11  1  0  0  0  0
  3 22  1  0  0  0  0
  4 15  2  0  0  0  0
  5  9  1  0  0  0  0
  5 14  2  0  0  0  0
  6  7  1  0  0  0  0
  6  9  1  0  0  0  0
  6 19  2  0  0  0  0
  7 13  2  0  0  0  0
  7 20  1  0  0  0  0
  8 12  2  0  0  0  0
  8 15  1  0  0  0  0
  8 17  1  0  0  0  0
  9 21  2  0  0  0  0
 10 11  2  0  0  0  0
 10 12  1  0  0  0  0
 11 18  1  0  0  0  0
 12 25  1  0  0  0  0
 13 14  1  0  0  0  0
 13 26  1  0  0  0  0
 15 16  1  0  0  0  0
 16 27  1  0  0  0  0
 16 28  1  0  0  0  0
 17 18  2  0  0  0  0
 17 29  1  0  0  0  0
 18 30  1  0  0  0  0
 19 23  1  0  0  0  0
 19 31  1  0  0  0  0
 20 32  1  0  0  0  0
 20 33  1  0  0  0  0
 20 34  1  0  0  0  0
 21 24  1  0  0  0  0
 21 35  1  0  0  0  0
 22 36  1  0  0  0  0
 22 37  1  0  0  0  0
 23 24  2  0  0  0  0
 23 38  1  0  0  0  0
 24 39  1  0  0  0  0
M  END
> <Activity>
3.341

> <Mapped(file=504701.csv.activities,property=Cached(PUBCHEM_COMPOUND_CID))>
3.341

> <PUBCHEM_ATOM_DEF_STEREO_COUNT>
0

> <PUBCHEM_ATOM_UDEF_STEREO_COUNT>
0

> <PUBCHEM_BONDANNOTATIONS>
10  11  8
10  12  8
11  18  8
13  14  8
17  18  8
19  23  8
21  24  8
23  24  8
5  14  8
5  9  8
6  19  8
6  7  8
6  9  8
7  13  8
8  12  8
8  17  8
9  21  8

> <PUBCHEM_BOND_DEF_STEREO_COUNT>
0

> <PUBCHEM_BOND_UDEF_STEREO_COUNT>
0

> <PUBCHEM_CACTVS_COMPLEXITY>
460

> <PUBCHEM_CACTVS_HBOND_ACCEPTOR>
5

> <PUBCHEM_CACTVS_HBOND_DONOR>
0

> <PUBCHEM_CACTVS_ROTATABLE_BOND>
4

> <PUBCHEM_CACTVS_SUBSKEYS>
AAADccB6MABAAAAAAAAAAAAAAAAAASAAAAA8YIAAAAAAAEix9AAAHgQAAAAADAyF3gOyz/IIFAioA6RyRACC2CBlKjAImDk27NgdJvLktZukMSpkwBHu6YeazPDOoAABAAACQABAAAIAAASAAAAAAAAAAA==

> <PUBCHEM_CACTVS_TAUTO_COUNT>
2

> <PUBCHEM_CACTVS_TPSA>
73.7

> <PUBCHEM_COMPONENT_COUNT>
1

> <PUBCHEM_COMPOUND_CANONICALIZED>
1

> <PUBCHEM_COMPOUND_CID>
1228660

> <PUBCHEM_COORDINATE_TYPE>
1
5
255

> <PUBCHEM_EXACT_MASS>
337.077264

> <PUBCHEM_HEAVY_ATOM_COUNT>
24

> <PUBCHEM_ISOTOPIC_ATOM_COUNT>
0

> <PUBCHEM_IUPAC_CAS_NAME>
1-(1,3-benzodioxol-5-yl)-2-[(4-methyl-2-quinolinyl)thio]ethanone

> <PUBCHEM_IUPAC_INCHI>
InChI=1S/C19H15NO3S/c1-12-8-19(20-15-5-3-2-4-14(12)15)24-10-16(21)13-6-7-17-18(9-13)23-11-22-17/h2-9H,10-11H2,1H3

> <PUBCHEM_IUPAC_INCHIKEY>
WLQLQOARHVMJPU-UHFFFAOYSA-N

> <PUBCHEM_IUPAC_NAME>
1-(1,3-benzodioxol-5-yl)-2-(4-methylquinolin-2-yl)sulfanylethanone

> <PUBCHEM_IUPAC_OPENEYE_NAME>
1-(1,3-benzodioxol-5-yl)-2-[(4-methyl-2-quinolyl)sulfanyl]ethanone

> <PUBCHEM_IUPAC_SYSTEMATIC_NAME>
1-(1,3-benzodioxol-5-yl)-2-(4-methylquinolin-2-yl)sulfanyl-ethanone

> <PUBCHEM_IUPAC_TRADITIONAL_NAME>
1-(1,3-benzodioxol-5-yl)-2-[(4-methyl-2-quinolyl)thio]ethanone

> <PUBCHEM_MOLECULAR_FORMULA>
C19H15NO3S

> <PUBCHEM_MOLECULAR_WEIGHT>
337.3923

> <PUBCHEM_MONOISOTOPIC_WEIGHT>
337.077264

> <PUBCHEM_OPENEYE_CAN_SMILES>
CC1=CC(=NC2=CC=CC=C12)SCC(=O)C3=CC4=C(C=C3)OCO4

> <PUBCHEM_OPENEYE_ISO_SMILES>
CC1=CC(=NC2=CC=CC=C12)SCC(=O)C3=CC4=C(C=C3)OCO4

> <PUBCHEM_TOTAL_CHARGE>
0

> <PUBCHEM_XLOGP3_AA>
4.6

$$$$
Written by BCL::WriteToMDL,7097319
MBcorina  10171218483D 1   1.00000     0.00000 
CORINA 3.49 0026  01.06.2011
 55 58  0  0  0  0  0  0  0  0999 V2000
   -0.0161    1.3381    0.0094 O   0  0  0  1  0  2  0  0  0  0  0  0
   -0.8238   -2.2282   -2.2113 O   0  0  0  1  0  1  0  0  0  0  0  0
    1.0565   -0.5939   -0.0112 O   0  0  0  1  0  1  0  0  0  0  0  0
   -1.0054   -2.2118   -0.0002 N   0  0  0  1  0  3  0  0  0  0  0  0
   -5.5958   -1.4724    0.8795 N   0  0  0  1  0  3  0  0  0  0  0  0
   -0.1461   -7.5869   -6.0748 N   0  0  0  1  0  3  0  0  0  0  0  0
   -2.0879   -0.4233    1.2690 C   0  0  0  1  0  4  0  0  0  0  0  0
   -1.2926   -0.7753    0.0102 C   0  0  0  1  0  4  0  0  0  0  0  0
   -3.4341   -1.0986    1.2179 C   0  0  0  1  0  3  0  0  0  0  0  0
    0.0202   -6.2921   -2.6318 C   0  0  0  1  0  4  0  0  0  0  0  0
   -0.2797   -4.7918   -2.6209 C   0  0  0  1  0  4  0  0  0  0  0  0
    0.2266   -6.7528   -4.0518 C   0  0  0  1  0  3  0  0  0  0  0  0
   -0.4893   -4.3241   -1.1793 C   0  0  0  1  0  4  0  0  0  0  0  0
   -3.7393   -2.4669    1.6431 C   0  0  0  1  0  3  0  0  0  0  0  0
    1.4764   -6.6949   -4.8137 C   0  0  0  1  0  3  0  0  0  0  0  0
   -5.1145   -2.6493    1.4079 C   0  0  0  1  0  3  0  0  0  0  0  0
   -0.7847   -2.8464   -1.1686 C   0  0  0  1  0  3  0  0  0  0  0  0
   -4.5810   -0.5607    0.7737 C   0  0  0  1  0  3  0  0  0  0  0  0
    1.1846   -7.2329   -6.0806 C   0  0  0  1  0  3  0  0  0  0  0  0
   -0.7001   -7.2936   -4.8584 C   0  0  0  1  0  3  0  0  0  0  0  0
    0.0021   -0.0041    0.0020 C   0  0  0  1  0  3  0  0  0  0  0  0
   -2.9811   -3.5070    2.1833 C   0  0  0  1  0  3  0  0  0  0  0  0
    2.7671   -6.2463   -4.5281 C   0  0  0  1  0  3  0  0  0  0  0  0
   -5.7027   -3.8709    1.7180 C   0  0  0  1  0  3  0  0  0  0  0  0
    2.1918   -7.3100   -7.0367 C   0  0  0  1  0  3  0  0  0  0  0  0
   -3.5794   -4.6992    2.4806 C   0  0  0  1  0  3  0  0  0  0  0  0
   -4.9354   -4.8844    2.2498 C   0  0  0  1  0  3  0  0  0  0  0  0
    3.7416   -6.3315   -5.4823 C   0  0  0  1  0  3  0  0  0  0  0  0
    3.4586   -6.8606   -6.7338 C   0  0  0  1  0  3  0  0  0  0  0  0
    1.2685    2.0148    0.0008 C   0  0  0  1  0  4  0  0  0  0  0  0
   -1.5436   -0.7641    2.1498 H   0  0  0  1  0  1  0  0  0  0  0  0
   -2.2250    0.6567    1.3221 H   0  0  0  1  0  1  0  0  0  0  0  0
   -1.8762   -0.5150   -0.8728 H   0  0  0  1  0  1  0  0  0  0  0  0
    0.9225   -6.4865   -2.0520 H   0  0  0  1  0  1  0  0  0  0  0  0
   -0.8177   -6.8333   -2.1924 H   0  0  0  1  0  1  0  0  0  0  0  0
    0.5582   -4.2506   -3.0604 H   0  0  0  1  0  1  0  0  0  0  0  0
   -1.1820   -4.5975   -3.2007 H   0  0  0  1  0  1  0  0  0  0  0  0
   -1.3271   -4.8653   -0.7399 H   0  0  0  1  0  1  0  0  0  0  0  0
    0.4130   -4.5185   -0.5995 H   0  0  0  1  0  1  0  0  0  0  0  0
   -0.9742   -2.7062    0.8337 H   0  0  0  1  0  1  0  0  0  0  0  0
   -4.6869    0.4431    0.3896 H   0  0  0  1  0  1  0  0  0  0  0  0
   -1.7304   -7.4710   -4.5875 H   0  0  0  1  0  1  0  0  0  0  0  0
   -6.5163   -1.3145    0.6175 H   0  0  0  1  0  1  0  0  0  0  0  0
   -0.6210   -7.9814   -6.8228 H   0  0  0  1  0  1  0  0  0  0  0  0
   -1.9253   -3.3705    2.3646 H   0  0  0  1  0  1  0  0  0  0  0  0
    2.9944   -5.8324   -3.5568 H   0  0  0  1  0  1  0  0  0  0  0  0
   -6.7573   -4.0245    1.5430 H   0  0  0  1  0  1  0  0  0  0  0  0
    1.9817   -7.7210   -8.0131 H   0  0  0  1  0  1  0  0  0  0  0  0
   -2.9924   -5.5036    2.8985 H   0  0  0  1  0  1  0  0  0  0  0  0
   -5.3940   -5.8322    2.4903 H   0  0  0  1  0  1  0  0  0  0  0  0
    4.7400   -5.9842   -5.2609 H   0  0  0  1  0  1  0  0  0  0  0  0
    4.2394   -6.9216   -7.4774 H   0  0  0  1  0  1  0  0  0  0  0  0
    1.8379    1.7248    0.8838 H   0  0  0  1  0  1  0  0  0  0  0  0
    1.8209    1.7343   -0.8960 H   0  0  0  1  0  1  0  0  0  0  0  0
    1.1110    3.0934    0.0081 H   0  0  0  1  0  1  0  0  0  0  0  0
  1 21  1  0  0  0  0
  1 30  1  0  0  0  0
  2 17  2  0  0  0  0
  3 21  2  0  0  0  0
  4  8  1  0  0  0  0
  4 17  1  0  0  0  0
  4 40  1  0  0  0  0
  5 16  1  0  0  0  0
  5 18  1  0  0  0  0
  5 43  1  0  0  0  0
  6 19  1  0  0  0  0
  6 20  1  0  0  0  0
  6 44  1  0  0  0  0
  7  8  1  0  0  0  0
  7  9  1  0  0  0  0
  7 31  1  0  0  0  0
  7 32  1  0  0  0  0
  8 21  1  0  0  0  0
  8 33  1  0  0  0  0
  9 14  1  0  0  0  0
  9 18  2  0  0  0  0
 10 11  1  0  0  0  0
 10 12  1  0  0  0  0
 10 34  1  0  0  0  0
 10 35  1  0  0  0  0
 11 13  1  0  0  0  0
 11 36  1  0  0  0  0
 11 37  1  0  0  0  0
 12 15  1  0  0  0  0
 12 20  2  0  0  0  0
 13 17  1  0  0  0  0
 13 38  1  0  0  0  0
 13 39  1  0  0  0  0
 14 16  1  0  0  0  0
 14 22  2  0  0  0  0
 15 19  1  0  0  0  0
 15 23  2  0  0  0  0
 16 24  2  0  0  0  0
 18 41  1  0  0  0  0
 19 25  2  0  0  0  0
 20 42  1  0  0  0  0
 22 26  1  0  0  0  0
 22 45  1  0  0  0  0
 23 28  1  0  0  0  0
 23 46  1  0  0  0  0
 24 27  1  0  0  0  0
 24 47  1  0  0  0  0
 25 29  1  0  0  0  0
 25 48  1  0  0  0  0
 26 27  2  0  0  0  0
 26 49  1  0  0  0  0
 27 50  1  0  0  0  0
 28 29  2  0  0  0  0
 28 51  1  0  0  0  0
 29 52  1  0  0  0  0
 30 53  1  0  0  0  0
 30 54  1  0  0  0  0
 30 55  1  0  0  0  0
M  END
> <Activity>
9.043

> <Mapped(file=504699.csv.activities,property=Cached(PUBCHEM_COMPOUND_CID))>
9.043

> <PUBCHEM_ATOM_DEF_STEREO_COUNT>
1

> <PUBCHEM_ATOM_UDEF_STEREO_COUNT>
0

> <PUBCHEM_BONDANNOTATIONS>
12  15  8
12  20  8
14  16  8
14  22  8
15  19  8
15  23  8
16  24  8
19  25  8
22  26  8
23  28  8
24  27  8
25  29  8
26  27  8
28  29  8
8  4  6
5  16  8
5  18  8
6  19  8
6  20  8
9  14  8
9  18  8

> <PUBCHEM_BOND_DEF_STEREO_COUNT>
0

> <PUBCHEM_BOND_UDEF_STEREO_COUNT>
0

> <PUBCHEM_CACTVS_COMPLEXITY>
598

> <PUBCHEM_CACTVS_HBOND_ACCEPTOR>
3

> <PUBCHEM_CACTVS_HBOND_DONOR>
3

> <PUBCHEM_CACTVS_ROTATABLE_BOND>
9

> <PUBCHEM_CACTVS_SUBSKEYS>
AAADceB7MAAAAAAAAAAAAAAAAAAAAWLAAAAwYAAAAAAAAFgB/gAAHgAQAAAADCjBngY+yPLJlACoAzX3XACCgCAxAiAI2aG4ZJgKIPLAkbGFIAhklgDYyAeY2fKOgAAAAAACAAAAAAAAAAQAAAAAAAAAAA==

> <PUBCHEM_CACTVS_TAUTO_COUNT>
2

> <PUBCHEM_CACTVS_TPSA>
87

> <PUBCHEM_COMPONENT_COUNT>
1

> <PUBCHEM_COMPOUND_CANONICALIZED>
1

> <PUBCHEM_COMPOUND_CID>
7097319

> <PUBCHEM_COORDINATE_TYPE>
1
5
255

> <PUBCHEM_EXACT_MASS>
403.189592

> <PUBCHEM_HEAVY_ATOM_COUNT>
30

> <PUBCHEM_ISOTOPIC_ATOM_COUNT>
0

> <PUBCHEM_IUPAC_CAS_NAME>
(2S)-3-(1H-indol-3-yl)-2-[[4-(1H-indol-3-yl)-1-oxobutyl]amino]propanoic acid methyl ester

> <PUBCHEM_IUPAC_INCHI>
InChI=1S/C24H25N3O3/c1-30-24(29)22(13-17-15-26-21-11-5-3-9-19(17)21)27-23(28)12-6-7-16-14-25-20-10-4-2-8-18(16)20/h2-5,8-11,14-15,22,25-26H,6-7,12-13H2,1H3,(H,27,28)/t22-/m0/s1

> <PUBCHEM_IUPAC_INCHIKEY>
DDCHFPJCANMSIK-QFIPXVFZSA-N

> <PUBCHEM_IUPAC_NAME>
methyl (2S)-3-(1H-indol-3-yl)-2-[4-(1H-indol-3-yl)butanoylamino]propanoate

> <PUBCHEM_IUPAC_OPENEYE_NAME>
methyl (2S)-3-(1H-indol-3-yl)-2-[4-(1H-indol-3-yl)butanoylamino]propanoate

> <PUBCHEM_IUPAC_SYSTEMATIC_NAME>
methyl (2S)-3-(1H-indol-3-yl)-2-[4-(1H-indol-3-yl)butanoylamino]propanoate

> <PUBCHEM_IUPAC_TRADITIONAL_NAME>
(2S)-3-(1H-indol-3-yl)-2-[4-(1H-indol-3-yl)butanoylamino]propionic acid methyl ester

> <PUBCHEM_MOLECULAR_FORMULA>
C24H25N3O3

> <PUBCHEM_MOLECULAR_WEIGHT>
403.4736

> <PUBCHEM_MONOISOTOPIC_WEIGHT>
403.189592

> <PUBCHEM_OPENEYE_CAN_SMILES>
COC(=O)C(CC1=CNC2=CC=CC=C21)NC(=O)CCCC3=CNC4=CC=CC=C43

> <PUBCHEM_OPENEYE_ISO_SMILES>
COC(=O)[C@H](CC1=CNC2=CC=CC=C21)NC(=O)CCCC3=CNC4=CC=CC=C43

> <PUBCHEM_TOTAL_CHARGE>
0

> <PUBCHEM_XLOGP3>
3.5

$$$$
Written by BCL::WriteToMDL,44201634
MBcorina  10171218483D 1   1.00000     0.00000 
CORINA 3.49 0026  01.06.2011
 86 87  0  0  0  0  0  0  0  0999 V2000
   -0.0176    1.4478    0.0100 O   0  0  0  1  0  2  0  0  0  0  0  0
    1.1973   -0.2853   -3.2459 O   0  0  0  1  0  1  0  0  0  0  0  0
    2.1885    1.5036    0.1692 O   0  0  0  1  0  1  0  0  0  0  0  0
    2.5480    4.5826    3.0993 O   0  0  0  1  0  2  0  0  0  0  0  0
   -0.8509    0.4787   -5.6326 O   0  0  0  1  0  1  0  0  0  0  0  0
    3.2358    3.3415    1.4053 O   0  0  0  1  0  1  0  0  0  0  0  0
   -5.0742    0.8197   -5.2472 O   0  0  0  1  0  2  0  0  0  0  0  0
   -0.5541    0.6668   -2.2726 N   0  0  0  1  0  3  0  0  0  0  0  0
   -2.4941    1.9400   -5.9265 N   0  0  0  1  0  3  0  0  0  0  0  0
   -2.0353   -0.9347   -1.1275 C   0  0  0  1  0  4  0  0  0  0  0  0
   -0.5885   -0.4803   -1.3338 C   0  0  0  1  0  4  0  0  0  0  0  0
    0.0021   -0.0041    0.0020 C   0  0  0  1  0  4  0  0  0  0  0  0
   -2.6326   -1.3602   -2.4703 C   0  0  0  1  0  4  0  0  0  0  0  0
   -2.0649   -2.1182   -0.1583 C   0  0  0  1  0  4  0  0  0  0  0  0
   -2.8548    0.2199   -0.5477 C   0  0  0  1  0  4  0  0  0  0  0  0
    0.7378    1.8787   -4.0401 C   0  0  0  1  0  4  0  0  0  0  0  0
    0.4621    0.6842   -3.1657 C   0  0  0  1  0  3  0  0  0  0  0  0
    1.6017    2.8605   -3.2530 C   0  0  0  1  0  4  0  0  0  0  0  0
   -0.5582    2.5309   -4.5046 C   0  0  0  1  0  4  0  0  0  0  0  0
    1.1696    3.5911   -0.2364 C   0  0  0  1  0  4  0  0  0  0  0  0
   -0.0535    3.9653   -1.0725 C   0  0  0  1  0  4  0  0  0  0  0  0
    1.1531    2.0982    0.0023 C   0  0  0  1  0  3  0  0  0  0  0  0
    1.0506    4.2515   -3.2654 C   0  0  0  1  0  3  0  0  0  0  0  0
    1.1117    4.3172    1.1088 C   0  0  0  1  0  4  0  0  0  0  0  0
   -1.3105    1.5756   -5.3947 C   0  0  0  1  0  3  0  0  0  0  0  0
    0.3340    4.7503   -2.2916 C   0  0  0  1  0  3  0  0  0  0  0  0
   -3.2254    1.0113   -6.7918 C   0  0  0  1  0  4  0  0  0  0  0  0
   -4.1404    1.8012   -7.7298 C   0  0  0  1  0  4  0  0  0  0  0  0
    2.3764    4.0445    1.8817 C   0  0  0  1  0  3  0  0  0  0  0  0
   -4.0688    0.0687   -5.9309 C   0  0  0  1  0  4  0  0  0  0  0  0
    3.7905    4.2771    3.7859 C   0  0  0  1  0  4  0  0  0  0  0  0
   -3.3025    2.6384   -8.6615 C   0  0  0  1  0  3  0  0  0  0  0  0
    4.9712    4.7715    2.9477 C   0  0  0  1  0  4  0  0  0  0  0  0
    3.8050    4.9735    5.1481 C   0  0  0  1  0  4  0  0  0  0  0  0
    3.9044    2.7644    3.9851 C   0  0  0  1  0  4  0  0  0  0  0  0
   -2.8911    2.1201   -9.8752 C   0  0  0  1  0  3  0  0  0  0  0  0
   -2.9501    3.9266   -8.3049 C   0  0  0  1  0  3  0  0  0  0  0  0
   -2.1225    2.8880  -10.7298 C   0  0  0  1  0  3  0  0  0  0  0  0
   -2.1816    4.6946   -9.1596 C   0  0  0  1  0  3  0  0  0  0  0  0
   -1.7657    4.1744  -10.3710 C   0  0  0  1  0  3  0  0  0  0  0  0
    0.0076   -1.3010   -1.7285 H   0  0  0  1  0  1  0  0  0  0  0  0
    1.0211   -0.3701    0.1068 H   0  0  0  1  0  1  0  0  0  0  0  0
   -0.6067   -0.3854    0.8239 H   0  0  0  1  0  1  0  0  0  0  0  0
   -2.0488   -2.1828   -2.8833 H   0  0  0  1  0  1  0  0  0  0  0  0
   -1.6394   -1.8151    0.7984 H   0  0  0  1  0  1  0  0  0  0  0  0
   -2.8337    1.0630   -1.2382 H   0  0  0  1  0  1  0  0  0  0  0  0
   -3.8852   -0.1037   -0.4008 H   0  0  0  1  0  1  0  0  0  0  0  0
   -2.4292    0.5230    0.4089 H   0  0  0  1  0  1  0  0  0  0  0  0
   -3.0953   -2.4418   -0.0113 H   0  0  0  1  0  1  0  0  0  0  0  0
   -1.4811   -2.9408   -0.5713 H   0  0  0  1  0  1  0  0  0  0  0  0
   -3.6631   -1.6838   -2.3234 H   0  0  0  1  0  1  0  0  0  0  0  0
   -2.6115   -0.5171   -3.1608 H   0  0  0  1  0  1  0  0  0  0  0  0
   -1.2372    1.3527   -2.2305 H   0  0  0  1  0  1  0  0  0  0  0  0
    1.3007    1.5409   -4.9207 H   0  0  0  1  0  1  0  0  0  0  0  0
    1.6983    2.5061   -2.2272 H   0  0  0  1  0  1  0  0  0  0  0  0
    2.6036    2.8743   -3.6980 H   0  0  0  1  0  1  0  0  0  0  0  0
   -1.1710    2.7791   -3.6380 H   0  0  0  1  0  1  0  0  0  0  0  0
   -0.3286    3.4405   -5.0597 H   0  0  0  1  0  1  0  0  0  0  0  0
    2.0831    3.8649   -0.7629 H   0  0  0  1  0  1  0  0  0  0  0  0
   -0.5810    3.0610   -1.3728 H   0  0  0  1  0  1  0  0  0  0  0  0
   -0.7300    4.5765   -0.4605 H   0  0  0  1  0  1  0  0  0  0  0  0
    1.2467    4.8944   -4.1245 H   0  0  0  1  0  1  0  0  0  0  0  0
    1.0137    5.3895    0.9391 H   0  0  0  1  0  1  0  0  0  0  0  0
    0.2537    3.9596    1.6781 H   0  0  0  1  0  1  0  0  0  0  0  0
    0.0061    5.7860   -2.3745 H   0  0  0  1  0  1  0  0  0  0  0  0
   -2.5168    0.4289   -7.3808 H   0  0  0  1  0  1  0  0  0  0  0  0
   -2.8617    2.8173   -5.7363 H   0  0  0  1  0  1  0  0  0  0  0  0
   -4.7492    1.1090   -8.3115 H   0  0  0  1  0  1  0  0  0  0  0  0
   -4.7895    2.4505   -7.1424 H   0  0  0  1  0  1  0  0  0  0  0  0
   -3.4285   -0.4286   -5.2024 H   0  0  0  1  0  1  0  0  0  0  0  0
   -4.5432   -0.6781   -6.5675 H   0  0  0  1  0  1  0  0  0  0  0  0
    4.8900    5.8492    2.8058 H   0  0  0  1  0  1  0  0  0  0  0  0
    5.9039    4.5421    3.4631 H   0  0  0  1  0  1  0  0  0  0  0  0
    4.9608    4.2754    1.9773 H   0  0  0  1  0  1  0  0  0  0  0  0
    2.9639    4.6213    5.7452 H   0  0  0  1  0  1  0  0  0  0  0  0
    4.7377    4.7442    5.6635 H   0  0  0  1  0  1  0  0  0  0  0  0
    3.7239    6.0512    5.0062 H   0  0  0  1  0  1  0  0  0  0  0  0
    3.8941    2.2683    3.0146 H   0  0  0  1  0  1  0  0  0  0  0  0
    4.8371    2.5351    4.5005 H   0  0  0  1  0  1  0  0  0  0  0  0
    3.0633    2.4123    4.5822 H   0  0  0  1  0  1  0  0  0  0  0  0
   -3.1699    1.1151  -10.1555 H   0  0  0  1  0  1  0  0  0  0  0  0
   -3.2756    4.3332   -7.3588 H   0  0  0  1  0  1  0  0  0  0  0  0
   -5.6477    0.2850   -4.6812 H   0  0  0  1  0  1  0  0  0  0  0  0
   -1.8005    2.4829  -11.6777 H   0  0  0  1  0  1  0  0  0  0  0  0
   -1.9065    5.7012   -8.8812 H   0  0  0  1  0  1  0  0  0  0  0  0
   -1.1649    4.7743  -11.0385 H   0  0  0  1  0  1  0  0  0  0  0  0
  1 12  1  0  0  0  0
  1 22  1  0  0  0  0
  2 17  2  0  0  0  0
  3 22  2  0  0  0  0
  4 29  1  0  0  0  0
  4 31  1  0  0  0  0
  5 25  2  0  0  0  0
  6 29  2  0  0  0  0
  7 30  1  0  0  0  0
  7 83  1  0  0  0  0
  8 11  1  0  0  0  0
  8 17  1  0  0  0  0
  8 53  1  0  0  0  0
  9 25  1  0  0  0  0
  9 27  1  0  0  0  0
  9 67  1  0  0  0  0
 10 11  1  0  0  0  0
 10 13  1  0  0  0  0
 10 14  1  0  0  0  0
 10 15  1  0  0  0  0
 11 12  1  0  0  0  0
 11 41  1  0  0  0  0
 12 42  1  0  0  0  0
 12 43  1  0  0  0  0
 13 44  1  0  0  0  0
 13 51  1  0  0  0  0
 13 52  1  0  0  0  0
 14 45  1  0  0  0  0
 14 49  1  0  0  0  0
 14 50  1  0  0  0  0
 15 46  1  0  0  0  0
 15 47  1  0  0  0  0
 15 48  1  0  0  0  0
 16 17  1  0  0  0  0
 16 18  1  0  0  0  0
 16 19  1  0  0  0  0
 16 54  1  0  0  0  0
 18 23  1  0  0  0  0
 18 55  1  0  0  0  0
 18 56  1  0  0  0  0
 19 25  1  0  0  0  0
 19 57  1  0  0  0  0
 19 58  1  0  0  0  0
 20 21  1  0  0  0  0
 20 22  1  0  0  0  0
 20 24  1  0  0  0  0
 20 59  1  0  0  0  0
 21 26  1  0  0  0  0
 21 60  1  0  0  0  0
 21 61  1  0  0  0  0
 23 26  2  0  0  0  0
 23 62  1  0  0  0  0
 24 29  1  0  0  0  0
 24 63  1  0  0  0  0
 24 64  1  0  0  0  0
 26 65  1  0  0  0  0
 27 28  1  0  0  0  0
 27 30  1  0  0  0  0
 27 66  1  0  0  0  0
 28 32  1  0  0  0  0
 28 68  1  0  0  0  0
 28 69  1  0  0  0  0
 30 70  1  0  0  0  0
 30 71  1  0  0  0  0
 31 33  1  0  0  0  0
 31 34  1  0  0  0  0
 31 35  1  0  0  0  0
 32 36  2  0  0  0  0
 32 37  1  0  0  0  0
 33 72  1  0  0  0  0
 33 73  1  0  0  0  0
 33 74  1  0  0  0  0
 34 75  1  0  0  0  0
 34 76  1  0  0  0  0
 34 77  1  0  0  0  0
 35 78  1  0  0  0  0
 35 79  1  0  0  0  0
 35 80  1  0  0  0  0
 36 38  1  0  0  0  0
 36 81  1  0  0  0  0
 37 39  2  0  0  0  0
 37 82  1  0  0  0  0
 38 40  2  0  0  0  0
 38 84  1  0  0  0  0
 39 40  1  0  0  0  0
 39 85  1  0  0  0  0
 40 86  1  0  0  0  0
M  END
> <Activity>
0.52024

> <Mapped(file=504701.csv.activities,property=Cached(PUBCHEM_COMPOUND_CID))>
0.52024

> <PUBCHEM_ATOM_DEF_STEREO_COUNT>
4

> <PUBCHEM_ATOM_UDEF_STEREO_COUNT>
0

> <PUBCHEM_BONDANNOTATIONS>
11  41  5
16  19  6
20  24  6
32  36  8
32  37  8
36  38  8
37  39  8
38  40  8
39  40  8
27  9  5

> <PUBCHEM_BOND_DEF_STEREO_COUNT>
1

> <PUBCHEM_BOND_UDEF_STEREO_COUNT>
0

> <PUBCHEM_CACTVS_COMPLEXITY>
881

> <PUBCHEM_CACTVS_HBOND_ACCEPTOR>
7

> <PUBCHEM_CACTVS_HBOND_DONOR>
3

> <PUBCHEM_CACTVS_ROTATABLE_BOND>
11

> <PUBCHEM_CACTVS_SUBSKEYS>
AAADcfB7OAAAAAAAAAAAAAAAAAAAAAAAAAAwAAAAAAAAAAABAAAAHgAQCAAAD2zhmAYyCILABgCIAiHSGAACAAAgAAAIiIEIAIgKMDKAkRGHYAAklgCYiAffwKAPAAAAAAAAAAAAAAAAAAAAAAAAAAAAAA==

> <PUBCHEM_CACTVS_TAUTO_COUNT>
12

> <PUBCHEM_CACTVS_TPSA>
131

> <PUBCHEM_COMPONENT_COUNT>
1

> <PUBCHEM_COMPOUND_CANONICALIZED>
1

> <PUBCHEM_COMPOUND_CID>
44201634

> <PUBCHEM_COORDINATE_TYPE>
1
5
255

> <PUBCHEM_EXACT_MASS>
558.330502

> <PUBCHEM_HEAVY_ATOM_COUNT>
40

> <PUBCHEM_ISOTOPIC_ATOM_COUNT>
0

> <PUBCHEM_IUPAC_CAS_NAME>
2-[(3R,6R,8Z,11S)-3-tert-butyl-6-[2-[[(2R)-1-hydroxy-3-phenylpropan-2-yl]amino]-2-oxoethyl]-5,12-dioxo-1-oxa-4-azacyclododec-8-en-11-yl]acetic acid tert-butyl ester

> <PUBCHEM_IUPAC_INCHI>
InChI=1S/C31H46N2O7/c1-30(2,3)25-20-39-29(38)23(18-27(36)40-31(4,5)6)15-11-10-14-22(28(37)33-25)17-26(35)32-24(19-34)16-21-12-8-7-9-13-21/h7-13,22-25,34H,14-20H2,1-6H3,(H,32,35)(H,33,37)/b11-10-/t22-,23+,24-,25+/m1/s1

> <PUBCHEM_IUPAC_INCHIKEY>
CFKXLZMHZOCZAV-UYECAPCLSA-N

> <PUBCHEM_IUPAC_NAME>
tert-butyl 2-[(3R,6R,8Z,11S)-3-tert-butyl-6-[2-[[(2R)-1-hydroxy-3-phenylpropan-2-yl]amino]-2-oxoethyl]-5,12-dioxo-1-oxa-4-azacyclododec-8-en-11-yl]acetate

> <PUBCHEM_IUPAC_OPENEYE_NAME>
tert-butyl 2-[(3R,6R,8Z,11S)-6-[2-[[(1R)-1-benzyl-2-hydroxy-ethyl]amino]-2-oxo-ethyl]-3-tert-butyl-5,12-dioxo-1-oxa-4-azacyclododec-8-en-11-yl]acetate

> <PUBCHEM_IUPAC_SYSTEMATIC_NAME>
tert-butyl 2-[(3R,6R,8Z,11S)-3-tert-butyl-5,12-bis(oxidanylidene)-6-[2-oxidanylidene-2-[[(2R)-1-oxidanyl-3-phenyl-propan-2-yl]amino]ethyl]-1-oxa-4-azacyclododec-8-en-11-yl]ethanoate

> <PUBCHEM_IUPAC_TRADITIONAL_NAME>
2-[(3R,6R,8Z,11S)-6-[2-[[(1R)-1-benzyl-2-hydroxy-ethyl]amino]-2-keto-ethyl]-3-tert-butyl-5,12-diketo-1-oxa-4-azacyclododec-8-en-11-yl]acetic acid tert-butyl ester

> <PUBCHEM_MOLECULAR_FORMULA>
C31H46N2O7

> <PUBCHEM_MOLECULAR_WEIGHT>
558.70614

> <PUBCHEM_MONOISOTOPIC_WEIGHT>
558.330502

> <PUBCHEM_OPENEYE_CAN_SMILES>
CC(C)(C)C1COC(=O)C(CC=CCC(C(=O)N1)CC(=O)NC(CC2=CC=CC=C2)CO)CC(=O)OC(C)(C)C

> <PUBCHEM_OPENEYE_ISO_SMILES>
CC(C)(C)[C@@H]1COC(=O)[C@@H](C/C=C\C[C@@H](C(=O)N1)CC(=O)N[C@H](CC2=CC=CC=C2)CO)CC(=O)OC(C)(C)C

> <PUBCHEM_TOTAL_CHARGE>
0

> <PUBCHEM_XLOGP3_AA>
3.7

$$$$
Written by BCL::WriteToMDL,5237327
MBcorina  10171218483D 1   1.00000     0.00000 
CORINA 3.49 0026  01.06.2011
 56 60  0  0  0  0  0  0  0  0999 V2000
   -1.0156    2.6419   -0.3046 S   0  0  0  1  0  4  0  0  0  0  0  0
   -5.7503   -7.7668    3.4175 F   0  0  0  1  0  1  0  0  0  0  0  0
   -1.2902    1.3631   -0.8602 O   0  0  0  1  0  1  0  0  0  0  0  0
    0.2609    3.2622   -0.3753 O   0  0  0  1  0  1  0  0  0  0  0  0
   -2.3623    6.4834   -2.7277 O   0  0  0  1  0  2  0  0  0  0  0  0
   -4.3776    1.9355    5.1712 O   0  0  0  1  0  1  0  0  0  0  0  0
   -2.0864    3.6947   -1.0026 N   0  0  0  1  0  3  0  0  0  0  0  0
   -3.5631    0.5498    3.6387 N   0  0  0  1  0  3  0  0  0  0  0  0
   -6.9265   -2.2146    6.2517 N   0  0  0  1  0  2  0  0  0  0  0  0
   -5.2583   -0.2285    5.2250 C   0  0  0  1  0  3  0  0  0  0  0  0
   -6.2376    0.0672    6.2713 C   0  0  0  1  0  3  0  0  0  0  0  0
   -1.4249    2.5393    1.4061 C   0  0  0  1  0  3  0  0  0  0  0  0
   -7.0570   -0.9850    6.7527 C   0  0  0  1  0  3  0  0  0  0  0  0
   -2.6498    1.5099    3.1923 C   0  0  0  1  0  3  0  0  0  0  0  0
   -6.0520   -2.5022    5.3109 C   0  0  0  1  0  3  0  0  0  0  0  0
   -5.1931   -1.5358    4.7649 C   0  0  0  1  0  3  0  0  0  0  0  0
   -2.3278    1.5900    1.8437 C   0  0  0  1  0  3  0  0  0  0  0  0
   -4.3737    0.8236    4.6800 C   0  0  0  1  0  3  0  0  0  0  0  0
   -2.0844    5.1070   -0.6133 C   0  0  0  1  0  4  0  0  0  0  0  0
   -0.8378    3.4056    2.3098 C   0  0  0  1  0  3  0  0  0  0  0  0
   -6.3774    1.3550    6.7991 C   0  0  0  1  0  3  0  0  0  0  0  0
   -5.9723   -3.8951    4.8098 C   0  0  0  1  0  3  0  0  0  0  0  0
   -2.0623    2.3854    4.0968 C   0  0  0  1  0  3  0  0  0  0  0  0
   -8.0006   -0.7074    7.7586 C   0  0  0  1  0  3  0  0  0  0  0  0
   -1.1563    3.3285    3.6535 C   0  0  0  1  0  3  0  0  0  0  0  0
   -2.8652    5.9077   -1.6234 C   0  0  0  1  0  3  0  0  0  0  0  0
   -7.3027    1.5868    7.7738 C   0  0  0  1  0  3  0  0  0  0  0  0
   -8.1110    0.5573    8.2499 C   0  0  0  1  0  3  0  0  0  0  0  0
   -6.8140   -4.8757    5.3332 C   0  0  0  1  0  3  0  0  0  0  0  0
   -5.0593   -4.2273    3.8096 C   0  0  0  1  0  3  0  0  0  0  0  0
   -4.1841    6.1673   -1.5717 C   0  0  0  1  0  3  0  0  0  0  0  0
   -6.7362   -6.1705    4.8639 C   0  0  0  1  0  3  0  0  0  0  0  0
   -4.9887   -5.5246    3.3466 C   0  0  0  1  0  3  0  0  0  0  0  0
   -5.8233   -6.4972    3.8738 C   0  0  0  1  0  3  0  0  0  0  0  0
   -4.4934    6.9448   -2.7114 C   0  0  0  1  0  3  0  0  0  0  0  0
   -3.3452    7.1137   -3.3913 C   0  0  0  1  0  3  0  0  0  0  0  0
   -4.4879   -1.8072    3.9932 H   0  0  0  1  0  1  0  0  0  0  0  0
   -2.7830    0.9110    1.1379 H   0  0  0  1  0  1  0  0  0  0  0  0
   -2.7150    3.3763   -1.6693 H   0  0  0  1  0  1  0  0  0  0  0  0
   -3.6132   -0.3133    3.1989 H   0  0  0  1  0  1  0  0  0  0  0  0
   -2.5445    5.2138    0.3690 H   0  0  0  1  0  1  0  0  0  0  0  0
   -1.0580    5.4720   -0.5754 H   0  0  0  1  0  1  0  0  0  0  0  0
   -0.1285    4.1438    1.9657 H   0  0  0  1  0  1  0  0  0  0  0  0
   -5.7567    2.1610    6.4366 H   0  0  0  1  0  1  0  0  0  0  0  0
   -2.3106    2.3257    5.1462 H   0  0  0  1  0  1  0  0  0  0  0  0
   -8.6349   -1.4943    8.1392 H   0  0  0  1  0  1  0  0  0  0  0  0
   -0.6956    4.0063    4.3568 H   0  0  0  1  0  1  0  0  0  0  0  0
   -7.4102    2.5812    8.1814 H   0  0  0  1  0  1  0  0  0  0  0  0
   -8.8370    0.7658    9.0218 H   0  0  0  1  0  1  0  0  0  0  0  0
   -7.5254   -4.6221    6.1051 H   0  0  0  1  0  1  0  0  0  0  0  0
   -4.4088   -3.4699    3.3979 H   0  0  0  1  0  1  0  0  0  0  0  0
   -4.8743    5.8435   -0.8068 H   0  0  0  1  0  1  0  0  0  0  0  0
   -7.3875   -6.9308    5.2690 H   0  0  0  1  0  1  0  0  0  0  0  0
   -4.2821   -5.7828    2.5716 H   0  0  0  1  0  1  0  0  0  0  0  0
   -5.4653    7.3290   -2.9839 H   0  0  0  1  0  1  0  0  0  0  0  0
   -3.2327    7.6630   -4.3143 H   0  0  0  1  0  1  0  0  0  0  0  0
  1  3  2  0  0  0  0
  1  4  2  0  0  0  0
  1  7  1  0  0  0  0
  1 12  1  0  0  0  0
  2 34  1  0  0  0  0
  5 26  1  0  0  0  0
  5 36  1  0  0  0  0
  6 18  2  0  0  0  0
  7 19  1  0  0  0  0
  7 39  1  0  0  0  0
  8 14  1  0  0  0  0
  8 18  1  0  0  0  0
  8 40  1  0  0  0  0
  9 13  1  0  0  0  0
  9 15  2  0  0  0  0
 10 11  1  0  0  0  0
 10 16  2  0  0  0  0
 10 18  1  0  0  0  0
 11 13  1  0  0  0  0
 11 21  2  0  0  0  0
 12 17  1  0  0  0  0
 12 20  2  0  0  0  0
 13 24  2  0  0  0  0
 14 17  2  0  0  0  0
 14 23  1  0  0  0  0
 15 16  1  0  0  0  0
 15 22  1  0  0  0  0
 16 37  1  0  0  0  0
 17 38  1  0  0  0  0
 19 26  1  0  0  0  0
 19 41  1  0  0  0  0
 19 42  1  0  0  0  0
 20 25  1  0  0  0  0
 20 43  1  0  0  0  0
 21 27  1  0  0  0  0
 21 44  1  0  0  0  0
 22 29  2  0  0  0  0
 22 30  1  0  0  0  0
 23 25  2  0  0  0  0
 23 45  1  0  0  0  0
 24 28  1  0  0  0  0
 24 46  1  0  0  0  0
 25 47  1  0  0  0  0
 26 31  2  0  0  0  0
 27 28  2  0  0  0  0
 27 48  1  0  0  0  0
 28 49  1  0  0  0  0
 29 32  1  0  0  0  0
 29 50  1  0  0  0  0
 30 33  2  0  0  0  0
 30 51  1  0  0  0  0
 31 35  1  0  0  0  0
 31 52  1  0  0  0  0
 32 34  2  0  0  0  0
 32 53  1  0  0  0  0
 33 34  1  0  0  0  0
 33 54  1  0  0  0  0
 35 36  2  0  0  0  0
 35 55  1  0  0  0  0
 36 56  1  0  0  0  0
M  END
> <Activity>
6.131

> <Mapped(file=504701.csv.activities,property=Cached(PUBCHEM_COMPOUND_CID))>
6.131

> <PUBCHEM_ATOM_DEF_STEREO_COUNT>
0

> <PUBCHEM_ATOM_UDEF_STEREO_COUNT>
0

> <PUBCHEM_BONDANNOTATIONS>
10  11  8
10  16  8
11  13  8
11  21  8
12  17  8
12  20  8
13  24  8
14  17  8
14  23  8
15  16  8
20  25  8
21  27  8
22  29  8
22  30  8
23  25  8
24  28  8
26  31  8
27  28  8
29  32  8
30  33  8
31  35  8
32  34  8
33  34  8
35  36  8
5  26  8
5  36  8
9  13  8
9  15  8

> <PUBCHEM_BOND_DEF_STEREO_COUNT>
0

> <PUBCHEM_BOND_UDEF_STEREO_COUNT>
0

> <PUBCHEM_CACTVS_COMPLEXITY>
844

> <PUBCHEM_CACTVS_HBOND_ACCEPTOR>
7

> <PUBCHEM_CACTVS_HBOND_DONOR>
2

> <PUBCHEM_CACTVS_ROTATABLE_BOND>
7

> <PUBCHEM_CACTVS_SUBSKEYS>
AAADceB7OQBAAAAAAAAAAAAAAAAAASAAAAA8YMEAAAAAAACx/AAAHwQQQAAADAzh3g4wxfLIFEKoA61y1HDCiDAlIiAImLm2bNgOJvLEtZuHOSzk1BHI6YecmcCOgAAAACACAAAAAAAAQAQAAAAAAAAAAA==

> <PUBCHEM_CACTVS_TAUTO_COUNT>
2

> <PUBCHEM_CACTVS_TPSA>
110

> <PUBCHEM_COMPONENT_COUNT>
1

> <PUBCHEM_COMPOUND_CANONICALIZED>
1

> <PUBCHEM_COMPOUND_CID>
5237327

> <PUBCHEM_COORDINATE_TYPE>
1
5
255

> <PUBCHEM_EXACT_MASS>
501.115855

> <PUBCHEM_HEAVY_ATOM_COUNT>
36

> <PUBCHEM_ISOTOPIC_ATOM_COUNT>
0

> <PUBCHEM_IUPAC_CAS_NAME>
2-(4-fluorophenyl)-N-[3-(2-furanylmethylsulfamoyl)phenyl]-4-quinolinecarboxamide

> <PUBCHEM_IUPAC_INCHI>
InChI=1S/C27H20FN3O4S/c28-19-12-10-18(11-13-19)26-16-24(23-8-1-2-9-25(23)31-26)27(32)30-20-5-3-7-22(15-20)36(33,34)29-17-21-6-4-14-35-21/h1-16,29H,17H2,(H,30,32)

> <PUBCHEM_IUPAC_INCHIKEY>
KUJAJRBKFGZHRW-UHFFFAOYSA-N

> <PUBCHEM_IUPAC_NAME>
2-(4-fluorophenyl)-N-[3-(furan-2-ylmethylsulfamoyl)phenyl]quinoline-4-carboxamide

> <PUBCHEM_IUPAC_OPENEYE_NAME>
2-(4-fluorophenyl)-N-[3-(2-furylmethylsulfamoyl)phenyl]quinoline-4-carboxamide

> <PUBCHEM_IUPAC_SYSTEMATIC_NAME>
2-(4-fluorophenyl)-N-[3-(furan-2-ylmethylsulfamoyl)phenyl]quinoline-4-carboxamide

> <PUBCHEM_IUPAC_TRADITIONAL_NAME>
2-(4-fluorophenyl)-N-[3-(2-furfurylsulfamoyl)phenyl]cinchoninamide

> <PUBCHEM_MOLECULAR_FORMULA>
C27H20FN3O4S

> <PUBCHEM_MOLECULAR_WEIGHT>
501.528803

> <PUBCHEM_MONOISOTOPIC_WEIGHT>
501.115855

> <PUBCHEM_OPENEYE_CAN_SMILES>
C1=CC=C2C(=C1)C(=CC(=N2)C3=CC=C(C=C3)F)C(=O)NC4=CC(=CC=C4)S(=O)(=O)NCC5=CC=CO5

> <PUBCHEM_OPENEYE_ISO_SMILES>
C1=CC=C2C(=C1)C(=CC(=N2)C3=CC=C(C=C3)F)C(=O)NC4=CC(=CC=C4)S(=O)(=O)NCC5=CC=CO5

> <PUBCHEM_TOTAL_CHARGE>
0

> <PUBCHEM_XLOGP3_AA>
4.3

$$$$
Written by BCL::WriteToMDL,16738608
MBcorina  10171218483D 1   1.00000     0.00000 
CORINA 3.49 0026  01.06.2011
 40 43  0  0  0  0  0  0  0  0999 V2000
   -1.3913    1.2147    0.1726 S   0  0  0  1  0  4  0  0  0  0  0  0
   -2.3498    2.1506    0.6467 O   0  0  0  1  0  1  0  0  0  0  0  0
   -1.6282   -0.1857    0.1287 O   0  0  0  1  0  1  0  0  0  0  0  0
   -0.6139    3.9091    0.1976 O   0  0  0  1  0  2  0  0  0  0  0  0
   -1.0142    1.6739   -1.3731 N   0  0  0  1  0  3  0  0  0  0  0  0
    0.0550    1.4442    1.1524 C   0  0  0  1  0  3  0  0  0  0  0  0
    1.2823    0.8979    0.7391 C   0  0  0  1  0  3  0  0  0  0  0  0
   -1.3725    2.9445   -1.8316 C   0  0  0  1  0  3  0  0  0  0  0  0
   -1.9518    3.1033   -3.1070 C   0  0  0  1  0  3  0  0  0  0  0  0
    2.4348    1.0932    1.5408 C   0  0  0  1  0  3  0  0  0  0  0  0
   -2.3076    4.4014   -3.5521 C   0  0  0  1  0  3  0  0  0  0  0  0
   -0.0092    2.1560    2.3105 C   0  0  0  1  0  3  0  0  0  0  0  0
   -1.1674    4.0565   -1.0365 C   0  0  0  1  0  3  0  0  0  0  0  0
    1.3891    0.1616   -0.4527 C   0  0  0  1  0  3  0  0  0  0  0  0
    2.3280    1.8292    2.7334 C   0  0  0  1  0  3  0  0  0  0  0  0
   -2.0774    5.5078   -2.7170 C   0  0  0  1  0  3  0  0  0  0  0  0
   -2.1823    2.0002   -3.9444 C   0  0  0  1  0  3  0  0  0  0  0  0
    1.1243    2.3485    3.0986 C   0  0  0  1  0  3  0  0  0  0  0  0
   -1.5227    5.3284   -1.4867 C   0  0  0  1  0  3  0  0  0  0  0  0
    3.6617    0.5468    1.1282 C   0  0  0  1  0  3  0  0  0  0  0  0
   -2.8850    4.5582   -4.8239 C   0  0  0  1  0  3  0  0  0  0  0  0
    2.5944   -0.3529   -0.8209 C   0  0  0  1  0  3  0  0  0  0  0  0
    3.7273   -0.1609   -0.0328 C   0  0  0  1  0  3  0  0  0  0  0  0
   -2.7433    2.1902   -5.1705 C   0  0  0  1  0  3  0  0  0  0  0  0
   -3.0941    3.4656   -5.6084 C   0  0  0  1  0  3  0  0  0  0  0  0
   -0.5447    1.0610   -1.9602 H   0  0  0  1  0  1  0  0  0  0  0  0
   -0.9525    2.5785    2.6235 H   0  0  0  1  0  1  0  0  0  0  0  0
    0.5194    0.0044   -1.0735 H   0  0  0  1  0  1  0  0  0  0  0  0
    3.1977    1.9860    3.3543 H   0  0  0  1  0  1  0  0  0  0  0  0
   -2.3457    6.4999   -3.0489 H   0  0  0  1  0  1  0  0  0  0  0  0
   -1.9157    1.0059   -3.6179 H   0  0  0  1  0  1  0  0  0  0  0  0
    1.0459    2.9178    4.0130 H   0  0  0  1  0  1  0  0  0  0  0  0
   -1.3543    6.1840   -0.8495 H   0  0  0  1  0  1  0  0  0  0  0  0
    4.5482    0.6879    1.7287 H   0  0  0  1  0  1  0  0  0  0  0  0
   -3.1617    5.5407   -5.1769 H   0  0  0  1  0  1  0  0  0  0  0  0
    2.6737   -0.9188   -1.7373 H   0  0  0  1  0  1  0  0  0  0  0  0
    4.6717   -0.5795   -0.3479 H   0  0  0  1  0  1  0  0  0  0  0  0
   -2.9195    1.3399   -5.8126 H   0  0  0  1  0  1  0  0  0  0  0  0
   -3.5383    3.5892   -6.5851 H   0  0  0  1  0  1  0  0  0  0  0  0
    0.3337    4.0991    0.2289 H   0  0  0  1  0  1  0  0  0  0  0  0
  1  2  2  0  0  0  0
  1  3  2  0  0  0  0
  1  5  1  0  0  0  0
  1  6  1  0  0  0  0
  4 13  1  0  0  0  0
  4 40  1  0  0  0  0
  5  8  1  0  0  0  0
  5 26  1  0  0  0  0
  6  7  1  0  0  0  0
  6 12  2  0  0  0  0
  7 10  1  0  0  0  0
  7 14  2  0  0  0  0
  8  9  1  0  0  0  0
  8 13  2  0  0  0  0
  9 11  1  0  0  0  0
  9 17  2  0  0  0  0
 10 15  1  0  0  0  0
 10 20  2  0  0  0  0
 11 16  1  0  0  0  0
 11 21  2  0  0  0  0
 12 18  1  0  0  0  0
 12 27  1  0  0  0  0
 13 19  1  0  0  0  0
 14 22  1  0  0  0  0
 14 28  1  0  0  0  0
 15 18  2  0  0  0  0
 15 29  1  0  0  0  0
 16 19  2  0  0  0  0
 16 30  1  0  0  0  0
 17 24  1  0  0  0  0
 17 31  1  0  0  0  0
 18 32  1  0  0  0  0
 19 33  1  0  0  0  0
 20 23  1  0  0  0  0
 20 34  1  0  0  0  0
 21 25  1  0  0  0  0
 21 35  1  0  0  0  0
 22 23  2  0  0  0  0
 22 36  1  0  0  0  0
 23 37  1  0  0  0  0
 24 25  2  0  0  0  0
 24 38  1  0  0  0  0
 25 39  1  0  0  0  0
M  END
> <Activity>
2.847

> <Mapped(file=504701.csv.activities,property=Cached(PUBCHEM_COMPOUND_CID))>
2.847

> <PUBCHEM_ATOM_DEF_STEREO_COUNT>
0

> <PUBCHEM_ATOM_UDEF_STEREO_COUNT>
0

> <PUBCHEM_BONDANNOTATIONS>
10  15  8
10  20  8
11  16  8
11  21  8
12  18  8
13  19  8
14  22  8
15  18  8
16  19  8
17  24  8
20  23  8
21  25  8
22  23  8
24  25  8
6  12  8
6  7  8
7  10  8
7  14  8
8  13  8
8  9  8
9  11  8
9  17  8

> <PUBCHEM_BOND_DEF_STEREO_COUNT>
0

> <PUBCHEM_BOND_UDEF_STEREO_COUNT>
0

> <PUBCHEM_CACTVS_COMPLEXITY>
558

> <PUBCHEM_CACTVS_HBOND_ACCEPTOR>
4

> <PUBCHEM_CACTVS_HBOND_DONOR>
2

> <PUBCHEM_CACTVS_ROTATABLE_BOND>
3

> <PUBCHEM_CACTVS_SUBSKEYS>
AAADccB6MABAAAAAAAAAAAAAAAAAAAAAAAAwYMGAAAAAAADBVAAAHgQQSAAADAyB2AAwx8BAAgKAAiRCQHDCABAgIAAIiBgHTIgKJiKSkZOAcABkwBEI2AeQwLAOoAABwAAWEABAAAOAACwgAAAAAAAAAA==

> <PUBCHEM_CACTVS_TAUTO_COUNT>
8

> <PUBCHEM_CACTVS_TPSA>
74.8

> <PUBCHEM_COMPONENT_COUNT>
1

> <PUBCHEM_COMPOUND_CANONICALIZED>
1

> <PUBCHEM_COMPOUND_CID>
16738608

> <PUBCHEM_COORDINATE_TYPE>
1
5
255

> <PUBCHEM_EXACT_MASS>
349.077264

> <PUBCHEM_HEAVY_ATOM_COUNT>
25

> <PUBCHEM_ISOTOPIC_ATOM_COUNT>
0

> <PUBCHEM_IUPAC_CAS_NAME>
N-(2-hydroxy-1-naphthalenyl)-1-naphthalenesulfonamide

> <PUBCHEM_IUPAC_INCHI>
InChI=1S/C20H15NO3S/c22-18-13-12-15-7-2-4-10-17(15)20(18)21-25(23,24)19-11-5-8-14-6-1-3-9-16(14)19/h1-13,21-22H

> <PUBCHEM_IUPAC_INCHIKEY>
FVNNRRJGTQAXGH-UHFFFAOYSA-N

> <PUBCHEM_IUPAC_NAME>
N-(2-hydroxynaphthalen-1-yl)naphthalene-1-sulfonamide

> <PUBCHEM_IUPAC_OPENEYE_NAME>
N-(2-hydroxy-1-naphthyl)naphthalene-1-sulfonamide

> <PUBCHEM_IUPAC_SYSTEMATIC_NAME>
N-(2-oxidanylnaphthalen-1-yl)naphthalene-1-sulfonamide

> <PUBCHEM_IUPAC_TRADITIONAL_NAME>
N-(2-hydroxy-1-naphthyl)naphthalene-1-sulfonamide

> <PUBCHEM_MOLECULAR_FORMULA>
C20H15NO3S

> <PUBCHEM_MOLECULAR_WEIGHT>
349.403

> <PUBCHEM_MONOISOTOPIC_WEIGHT>
349.077264

> <PUBCHEM_OPENEYE_CAN_SMILES>
C1=CC=C2C(=C1)C=CC=C2S(=O)(=O)NC3=C(C=CC4=CC=CC=C43)O

> <PUBCHEM_OPENEYE_ISO_SMILES>
C1=CC=C2C(=C1)C=CC=C2S(=O)(=O)NC3=C(C=CC4=CC=CC=C43)O

> <PUBCHEM_TOTAL_CHARGE>
0

> <PUBCHEM_XLOGP3_AA>
4.6

$$$$
Written by BCL::WriteToMDL,16656172
MBcorina  10171218483D 1   1.00000     0.00000 
CORINA 3.49 0026  01.06.2011
 58 61  0  0  0  0  0  0  0  0999 V2000
   -2.8838   -3.8101   -0.9927 Cl  0  0  0  1  0  1  0  0  0  0  0  0
    0.3093    1.2605   -0.5978 S   0  0  0  1  0  4  0  0  0  0  0  0
    0.5961    2.3257    0.2980 O   0  0  0  1  0  1  0  0  0  0  0  0
   -0.2627    0.0280   -0.1819 O   0  0  0  1  0  1  0  0  0  0  0  0
   -4.6422    0.3177   -2.4475 O   0  0  0  1  0  2  0  0  0  0  0  0
   -5.3555    2.4200   -2.5117 O   0  0  0  1  0  1  0  0  0  0  0  0
    4.5003    5.1994   -0.5645 O   0  0  0  1  0  2  0  0  0  0  0  0
   -0.7035    1.8801   -1.7522 N   0  0  0  1  0  3  0  0  0  0  0  0
   -0.4100    3.1589   -2.4218 C   0  0  0  1  0  4  0  0  0  0  0  0
   -1.9278    1.1729   -2.1538 C   0  0  0  1  0  4  0  0  0  0  0  0
   -1.5376    4.1381   -2.0853 C   0  0  0  1  0  4  0  0  0  0  0  0
   -3.0541    2.1624   -2.2682 C   0  0  0  1  0  3  0  0  0  0  0  0
   -2.8726    3.4728   -2.2433 C   0  0  0  1  0  3  0  0  0  0  0  0
    0.9038    3.7046   -1.9247 C   0  0  0  1  0  3  0  0  0  0  0  0
   -2.2728    0.1348   -1.1173 C   0  0  0  1  0  3  0  0  0  0  0  0
    1.8277    0.8598   -1.3968 C   0  0  0  1  0  3  0  0  0  0  0  0
    2.0495    3.5413   -2.6813 C   0  0  0  1  0  3  0  0  0  0  0  0
    0.9605    4.3726   -0.7154 C   0  0  0  1  0  3  0  0  0  0  0  0
   -4.4223    1.6473   -2.4167 C   0  0  0  1  0  3  0  0  0  0  0  0
   -2.4029   -1.1912   -1.4842 C   0  0  0  1  0  3  0  0  0  0  0  0
   -2.4536    0.5083    0.2016 C   0  0  0  1  0  3  0  0  0  0  0  0
    1.8470   -0.0734   -2.4167 C   0  0  0  1  0  3  0  0  0  0  0  0
    2.9987    1.4826   -1.0078 C   0  0  0  1  0  3  0  0  0  0  0  0
    3.2551    4.0409   -2.2280 C   0  0  0  1  0  3  0  0  0  0  0  0
    2.1636    4.8741   -0.2578 C   0  0  0  1  0  3  0  0  0  0  0  0
   -2.7197   -2.1443   -0.5324 C   0  0  0  1  0  3  0  0  0  0  0  0
   -2.7696   -0.4433    1.1529 C   0  0  0  1  0  3  0  0  0  0  0  0
    3.3155    4.7070   -1.0126 C   0  0  0  1  0  3  0  0  0  0  0  0
    3.0381   -0.3877   -3.0434 C   0  0  0  1  0  3  0  0  0  0  0  0
    0.5693   -0.7482   -2.8448 C   0  0  0  1  0  4  0  0  0  0  0  0
    4.1901    1.1683   -1.6347 C   0  0  0  1  0  3  0  0  0  0  0  0
   -2.9060   -1.7691    0.7859 C   0  0  0  1  0  3  0  0  0  0  0  0
    4.2102    0.2315   -2.6507 C   0  0  0  1  0  3  0  0  0  0  0  0
    4.4877    5.8738    0.6953 C   0  0  0  1  0  4  0  0  0  0  0  0
   -0.3627    3.0079   -3.5002 H   0  0  0  1  0  1  0  0  0  0  0  0
   -1.7693    0.6885   -3.1173 H   0  0  0  1  0  1  0  0  0  0  0  0
   -1.4241    4.4787   -1.0561 H   0  0  0  1  0  1  0  0  0  0  0  0
   -1.4812    4.9966   -2.7545 H   0  0  0  1  0  1  0  0  0  0  0  0
   -3.7422    4.1049   -2.3460 H   0  0  0  1  0  1  0  0  0  0  0  0
    2.0020    3.0224   -3.6273 H   0  0  0  1  0  1  0  0  0  0  0  0
    0.0634    4.5028   -0.1284 H   0  0  0  1  0  1  0  0  0  0  0  0
   -2.2577   -1.4834   -2.5138 H   0  0  0  1  0  1  0  0  0  0  0  0
   -2.3475    1.5441    0.4886 H   0  0  0  1  0  1  0  0  0  0  0  0
    2.9829    2.2151   -0.2143 H   0  0  0  1  0  1  0  0  0  0  0  0
    4.1498    3.9128   -2.8192 H   0  0  0  1  0  1  0  0  0  0  0  0
    2.2073    5.3962    0.6867 H   0  0  0  1  0  1  0  0  0  0  0  0
   -2.9103   -0.1510    2.1830 H   0  0  0  1  0  1  0  0  0  0  0  0
    3.0532   -1.1172   -3.8397 H   0  0  0  1  0  1  0  0  0  0  0  0
    0.1272   -0.1964   -3.6743 H   0  0  0  1  0  1  0  0  0  0  0  0
    0.7858   -1.7685   -3.1614 H   0  0  0  1  0  1  0  0  0  0  0  0
   -0.1291   -0.7679   -2.0082 H   0  0  0  1  0  1  0  0  0  0  0  0
    5.1051    1.6552   -1.3309 H   0  0  0  1  0  1  0  0  0  0  0  0
   -3.1535   -2.5125    1.5292 H   0  0  0  1  0  1  0  0  0  0  0  0
    5.1410   -0.0144   -3.1402 H   0  0  0  1  0  1  0  0  0  0  0  0
   -5.5590    0.0266   -2.5467 H   0  0  0  1  0  1  0  0  0  0  0  0
    3.8158    6.7304    0.6422 H   0  0  0  1  0  1  0  0  0  0  0  0
    4.1431    5.1893    1.4704 H   0  0  0  1  0  1  0  0  0  0  0  0
    5.4946    6.2161    0.9343 H   0  0  0  1  0  1  0  0  0  0  0  0
  1 26  1  0  0  0  0
  2  3  2  0  0  0  0
  2  4  2  0  0  0  0
  2  8  1  0  0  0  0
  2 16  1  0  0  0  0
  5 19  1  0  0  0  0
  5 55  1  0  0  0  0
  6 19  2  0  0  0  0
  7 28  1  0  0  0  0
  7 34  1  0  0  0  0
  8  9  1  0  0  0  0
  8 10  1  0  0  0  0
  9 11  1  0  0  0  0
  9 14  1  0  0  0  0
  9 35  1  0  0  0  0
 10 12  1  0  0  0  0
 10 15  1  0  0  0  0
 10 36  1  0  0  0  0
 11 13  1  0  0  0  0
 11 37  1  0  0  0  0
 11 38  1  0  0  0  0
 12 13  2  0  0  0  0
 12 19  1  0  0  0  0
 13 39  1  0  0  0  0
 14 17  2  0  0  0  0
 14 18  1  0  0  0  0
 15 20  2  0  0  0  0
 15 21  1  0  0  0  0
 16 22  1  0  0  0  0
 16 23  2  0  0  0  0
 17 24  1  0  0  0  0
 17 40  1  0  0  0  0
 18 25  2  0  0  0  0
 18 41  1  0  0  0  0
 20 26  1  0  0  0  0
 20 42  1  0  0  0  0
 21 27  2  0  0  0  0
 21 43  1  0  0  0  0
 22 29  2  0  0  0  0
 22 30  1  0  0  0  0
 23 31  1  0  0  0  0
 23 44  1  0  0  0  0
 24 28  2  0  0  0  0
 24 45  1  0  0  0  0
 25 28  1  0  0  0  0
 25 46  1  0  0  0  0
 26 32  2  0  0  0  0
 27 32  1  0  0  0  0
 27 47  1  0  0  0  0
 29 33  1  0  0  0  0
 29 48  1  0  0  0  0
 30 49  1  0  0  0  0
 30 50  1  0  0  0  0
 30 51  1  0  0  0  0
 31 33  2  0  0  0  0
 31 52  1  0  0  0  0
 32 53  1  0  0  0  0
 33 54  1  0  0  0  0
 34 56  1  0  0  0  0
 34 57  1  0  0  0  0
 34 58  1  0  0  0  0
M  END
> <Activity>
1.086

> <Mapped(file=504701.csv.activities,property=Cached(PUBCHEM_COMPOUND_CID))>
1.086

> <PUBCHEM_ATOM_DEF_STEREO_COUNT>
2

> <PUBCHEM_ATOM_UDEF_STEREO_COUNT>
0

> <PUBCHEM_BONDANNOTATIONS>
10  15  5
14  17  8
14  18  8
15  20  8
15  21  8
16  22  8
16  23  8
17  24  8
18  25  8
20  26  8
21  27  8
22  29  8
23  31  8
24  28  8
25  28  8
26  32  8
27  32  8
29  33  8
31  33  8
9  14  5

> <PUBCHEM_BOND_DEF_STEREO_COUNT>
0

> <PUBCHEM_BOND_UDEF_STEREO_COUNT>
0

> <PUBCHEM_CACTVS_COMPLEXITY>
848

> <PUBCHEM_CACTVS_HBOND_ACCEPTOR>
6

> <PUBCHEM_CACTVS_HBOND_DONOR>
1

> <PUBCHEM_CACTVS_ROTATABLE_BOND>
6

> <PUBCHEM_CACTVS_SUBSKEYS>
AAADceB6OABEAAAAAAAAAAAAAAAAAAAAAAAwYMEAAAAAAAABUAAAHgYASAAADC7B2CYyD4IABgKIAiDSCHDCCBAgJQAIiBkODsgMJjqFsxuEcChmwBGIuYeY2KOOIAAAIAAEAABAAABAAAgAAAAAAAAAAA==

> <PUBCHEM_CACTVS_TAUTO_COUNT>
1

> <PUBCHEM_CACTVS_TPSA>
92.3

> <PUBCHEM_COMPONENT_COUNT>
1

> <PUBCHEM_COMPOUND_CANONICALIZED>
1

> <PUBCHEM_COMPOUND_CID>
16656172

> <PUBCHEM_COORDINATE_TYPE>
1
5
255

> <PUBCHEM_EXACT_MASS>
497.106372

> <PUBCHEM_HEAVY_ATOM_COUNT>
34

> <PUBCHEM_ISOTOPIC_ATOM_COUNT>
0

> <PUBCHEM_IUPAC_CAS_NAME>
(2S,6S)-6-(3-chlorophenyl)-2-(4-methoxyphenyl)-1-(2-methylphenyl)sulfonyl-3,6-dihydro-2H-pyridine-5-carboxylic acid

> <PUBCHEM_IUPAC_INCHI>
InChI=1S/C26H24ClNO5S/c1-17-6-3-4-9-24(17)34(31,32)28-23(18-10-12-21(33-2)13-11-18)15-14-22(26(29)30)25(28)19-7-5-8-20(27)16-19/h3-14,16,23,25H,15H2,1-2H3,(H,29,30)/t23-,25-/m0/s1

> <PUBCHEM_IUPAC_INCHIKEY>
RBVRQCULUMILKV-ZCYQVOJMSA-N

> <PUBCHEM_IUPAC_NAME>
(2S,6S)-6-(3-chlorophenyl)-2-(4-methoxyphenyl)-1-(2-methylphenyl)sulfonyl-3,6-dihydro-2H-pyridine-5-carboxylic acid

> <PUBCHEM_IUPAC_OPENEYE_NAME>
(2S,6S)-6-(3-chlorophenyl)-2-(4-methoxyphenyl)-1-(o-tolylsulfonyl)-3,6-dihydro-2H-pyridine-5-carboxylic acid

> <PUBCHEM_IUPAC_SYSTEMATIC_NAME>
(2S,6S)-6-(3-chlorophenyl)-2-(4-methoxyphenyl)-1-(2-methylphenyl)sulfonyl-3,6-dihydro-2H-pyridine-5-carboxylic acid

> <PUBCHEM_IUPAC_TRADITIONAL_NAME>
(2S,6S)-6-(3-chlorophenyl)-2-(4-methoxyphenyl)-1-(o-tolylsulfonyl)-3,6-dihydro-2H-pyridine-5-carboxylic acid

> <PUBCHEM_MOLECULAR_FORMULA>
C26H24ClNO5S

> <PUBCHEM_MOLECULAR_WEIGHT>
497.99046

> <PUBCHEM_MONOISOTOPIC_WEIGHT>
497.106372

> <PUBCHEM_OPENEYE_CAN_SMILES>
CC1=CC=CC=C1S(=O)(=O)N2C(CC=C(C2C3=CC(=CC=C3)Cl)C(=O)O)C4=CC=C(C=C4)OC

> <PUBCHEM_OPENEYE_ISO_SMILES>
CC1=CC=CC=C1S(=O)(=O)N2[C@@H](CC=C([C@@H]2C3=CC(=CC=C3)Cl)C(=O)O)C4=CC=C(C=C4)OC

> <PUBCHEM_TOTAL_CHARGE>
0

> <PUBCHEM_XLOGP3_AA>
5.2

$$$$
Written by BCL::WriteToMDL,6533320
MBcorina  10171218483D 1   1.00000     0.00000 
CORINA 3.49 0026  01.06.2011
 53 55  0  0  0  0  0  0  0  0999 V2000
    5.4118  -11.9696    9.8066 Cl  0  0  0  1  0  1  0  0  0  0  0  0
    0.0060    1.8128    0.4988 S   0  0  0  1  0  2  0  0  0  0  0  0
    3.8545   -6.6707    7.8417 O   0  0  0  1  0  2  0  0  0  0  0  0
    2.5282   -2.7161    5.1842 O   0  0  0  1  0  1  0  0  0  0  0  0
    3.4591    0.3483    0.5832 O   0  0  0  1  0  1  0  0  0  0  0  0
   -0.8954   -0.6226    1.1646 O   0  0  0  1  0  1  0  0  0  0  0  0
    1.3444   -0.2745    0.9022 N   0  0  0  1  0  3  0  0  0  0  0  0
    2.3413   -3.1773    3.0222 N   0  0  0  1  0  3  0  0  0  0  0  0
    1.7914    6.6026   -0.8877 N   0  0  0  1  0  2  0  0  0  0  0  0
    1.7220   -1.6561    1.2100 C   0  0  0  1  0  4  0  0  0  0  0  0
    1.9637   -1.7957    2.7144 C   0  0  0  1  0  4  0  0  0  0  0  0
    2.9926   -4.9578    4.6109 C   0  0  0  1  0  4  0  0  0  0  0  0
    3.2344   -5.0974    6.1152 C   0  0  0  1  0  4  0  0  0  0  0  0
    2.6042   -3.5366    4.2943 C   0  0  0  1  0  3  0  0  0  0  0  0
    3.6287   -6.5403    6.4367 C   0  0  0  1  0  4  0  0  0  0  0  0
    2.2735    0.6205    0.6102 C   0  0  0  1  0  3  0  0  0  0  0  0
    0.0575    0.0909    0.9150 C   0  0  0  1  0  3  0  0  0  0  0  0
    1.7651    1.9684    0.3215 C   0  0  0  1  0  3  0  0  0  0  0  0
    4.2154   -7.8994    8.2973 C   0  0  0  1  0  3  0  0  0  0  0  0
    4.4502   -8.0970    9.6500 C   0  0  0  1  0  3  0  0  0  0  0  0
    2.4758    3.0757   -0.0054 C   0  0  0  1  0  3  0  0  0  0  0  0
    4.3439   -8.9588    7.4107 C   0  0  0  1  0  3  0  0  0  0  0  0
    1.8026    4.3791   -0.1029 C   0  0  0  1  0  3  0  0  0  0  0  0
    4.8171   -9.3467   10.1112 C   0  0  0  1  0  3  0  0  0  0  0  0
    4.3058   -6.9493   10.6159 C   0  0  0  1  0  4  0  0  0  0  0  0
    4.7108  -10.2066    7.8756 C   0  0  0  1  0  3  0  0  0  0  0  0
    4.9502  -10.4005    9.2248 C   0  0  0  1  0  3  0  0  0  0  0  0
    0.5540    4.5853    0.5038 C   0  0  0  1  0  3  0  0  0  0  0  0
    2.3954    5.4361   -0.8017 C   0  0  0  1  0  3  0  0  0  0  0  0
   -0.0355    5.8300    0.3821 C   0  0  0  1  0  3  0  0  0  0  0  0
    0.6176    6.8233   -0.3269 C   0  0  0  1  0  3  0  0  0  0  0  0
    0.9192   -2.3283    0.9071 H   0  0  0  1  0  1  0  0  0  0  0  0
    2.6336   -1.9125    0.6702 H   0  0  0  1  0  1  0  0  0  0  0  0
    1.0521   -1.5393    3.2542 H   0  0  0  1  0  1  0  0  0  0  0  0
    2.7666   -1.1235    3.0173 H   0  0  0  1  0  1  0  0  0  0  0  0
    4.0372   -4.4253    6.4181 H   0  0  0  1  0  1  0  0  0  0  0  0
    2.3228   -4.8410    6.6550 H   0  0  0  1  0  1  0  0  0  0  0  0
    3.9042   -5.2142    4.0711 H   0  0  0  1  0  1  0  0  0  0  0  0
    2.1898   -5.6300    4.3080 H   0  0  0  1  0  1  0  0  0  0  0  0
    2.4021   -3.8335    2.3104 H   0  0  0  1  0  1  0  0  0  0  0  0
    4.5403   -6.7967    5.8969 H   0  0  0  1  0  1  0  0  0  0  0  0
    2.8259   -7.2125    6.1338 H   0  0  0  1  0  1  0  0  0  0  0  0
    3.5365    3.0004   -0.1943 H   0  0  0  1  0  1  0  0  0  0  0  0
    4.1567   -8.8080    6.3578 H   0  0  0  1  0  1  0  0  0  0  0  0
    5.0003   -9.5008   11.1643 H   0  0  0  1  0  1  0  0  0  0  0  0
    3.2811   -6.9123   10.9856 H   0  0  0  1  0  1  0  0  0  0  0  0
    4.9893   -7.0908   11.4531 H   0  0  0  1  0  1  0  0  0  0  0  0
    4.5426   -6.0146   10.1075 H   0  0  0  1  0  1  0  0  0  0  0  0
    4.8105  -11.0316    7.1858 H   0  0  0  1  0  1  0  0  0  0  0  0
    0.0661    3.7923    1.0511 H   0  0  0  1  0  1  0  0  0  0  0  0
    3.3559    5.2939   -1.2747 H   0  0  0  1  0  1  0  0  0  0  0  0
   -0.9961    6.0252    0.8354 H   0  0  0  1  0  1  0  0  0  0  0  0
    0.1585    7.7962   -0.4224 H   0  0  0  1  0  1  0  0  0  0  0  0
  1 27  1  0  0  0  0
  2 17  1  0  0  0  0
  2 18  1  0  0  0  0
  3 15  1  0  0  0  0
  3 19  1  0  0  0  0
  4 14  2  0  0  0  0
  5 16  2  0  0  0  0
  6 17  2  0  0  0  0
  7 10  1  0  0  0  0
  7 16  1  0  0  0  0
  7 17  1  0  0  0  0
  8 11  1  0  0  0  0
  8 14  1  0  0  0  0
  8 40  1  0  0  0  0
  9 29  1  0  0  0  0
  9 31  2  0  0  0  0
 10 11  1  0  0  0  0
 10 32  1  0  0  0  0
 10 33  1  0  0  0  0
 11 34  1  0  0  0  0
 11 35  1  0  0  0  0
 12 13  1  0  0  0  0
 12 14  1  0  0  0  0
 12 38  1  0  0  0  0
 12 39  1  0  0  0  0
 13 15  1  0  0  0  0
 13 36  1  0  0  0  0
 13 37  1  0  0  0  0
 15 41  1  0  0  0  0
 15 42  1  0  0  0  0
 16 18  1  0  0  0  0
 18 21  2  0  0  0  0
 19 20  2  0  0  0  0
 19 22  1  0  0  0  0
 20 24  1  0  0  0  0
 20 25  1  0  0  0  0
 21 23  1  0  0  0  0
 21 43  1  0  0  0  0
 22 26  2  0  0  0  0
 22 44  1  0  0  0  0
 23 28  1  0  0  0  0
 23 29  2  0  0  0  0
 24 27  2  0  0  0  0
 24 45  1  0  0  0  0
 25 46  1  0  0  0  0
 25 47  1  0  0  0  0
 25 48  1  0  0  0  0
 26 27  1  0  0  0  0
 26 49  1  0  0  0  0
 28 30  2  0  0  0  0
 28 50  1  0  0  0  0
 29 51  1  0  0  0  0
 30 31  1  0  0  0  0
 30 52  1  0  0  0  0
 31 53  1  0  0  0  0
M  END
> <Activity>
0.26435

> <Mapped(file=504701.csv.activities,property=Cached(PUBCHEM_COMPOUND_CID))>
0.26435

> <PUBCHEM_ATOM_DEF_STEREO_COUNT>
0

> <PUBCHEM_ATOM_UDEF_STEREO_COUNT>
0

> <PUBCHEM_BONDANNOTATIONS>
19  20  8
19  22  8
20  24  8
22  26  8
23  28  8
23  29  8
24  27  8
26  27  8
28  30  8
30  31  8
9  29  8
9  31  8

> <PUBCHEM_BOND_DEF_STEREO_COUNT>
1

> <PUBCHEM_BOND_UDEF_STEREO_COUNT>
0

> <PUBCHEM_CACTVS_COMPLEXITY>
690

> <PUBCHEM_CACTVS_HBOND_ACCEPTOR>
6

> <PUBCHEM_CACTVS_HBOND_DONOR>
1

> <PUBCHEM_CACTVS_ROTATABLE_BOND>
9

> <PUBCHEM_CACTVS_SUBSKEYS>
AAADceB7OABEAAAAAAAAAAAAAAAAAWAAAAA8QAAAAAAAAAABwAAAHgYQAAAADAbh2iY+hpPIFAioAjF3VACCiCBxJzAI2KE+btgMZvLFs5uWOCjk1jHI6YeywCAOACAAIAAIAAAAQABAABAAAAAAAAAAAA==

> <PUBCHEM_CACTVS_TAUTO_COUNT>
2

> <PUBCHEM_CACTVS_TPSA>
114

> <PUBCHEM_COMPONENT_COUNT>
1

> <PUBCHEM_COMPOUND_CANONICALIZED>
1

> <PUBCHEM_COMPOUND_CID>
6533320

> <PUBCHEM_COORDINATE_TYPE>
1
5
255

> <PUBCHEM_EXACT_MASS>
459.101955

> <PUBCHEM_HEAVY_ATOM_COUNT>
31

> <PUBCHEM_ISOTOPIC_ATOM_COUNT>
0

> <PUBCHEM_IUPAC_CAS_NAME>
4-(4-chloro-2-methylphenoxy)-N-[2-[(5Z)-2,4-dioxo-5-(3-pyridinylmethylidene)-3-thiazolidinyl]ethyl]butanamide

> <PUBCHEM_IUPAC_INCHI>
InChI=1S/C22H22ClN3O4S/c1-15-12-17(23)6-7-18(15)30-11-3-5-20(27)25-9-10-26-21(28)19(31-22(26)29)13-16-4-2-8-24-14-16/h2,4,6-8,12-14H,3,5,9-11H2,1H3,(H,25,27)/b19-13-

> <PUBCHEM_IUPAC_INCHIKEY>
CNWSMCUOMUHUNS-UYRXBGFRSA-N

> <PUBCHEM_IUPAC_NAME>
4-(4-chloro-2-methylphenoxy)-N-[2-[(5Z)-2,4-dioxo-5-(pyridin-3-ylmethylidene)-1,3-thiazolidin-3-yl]ethyl]butanamide

> <PUBCHEM_IUPAC_OPENEYE_NAME>
4-(4-chloro-2-methyl-phenoxy)-N-[2-[(5Z)-2,4-dioxo-5-(3-pyridylmethylene)thiazolidin-3-yl]ethyl]butanamide

> <PUBCHEM_IUPAC_SYSTEMATIC_NAME>
N-[2-[(5Z)-2,4-bis(oxidanylidene)-5-(pyridin-3-ylmethylidene)-1,3-thiazolidin-3-yl]ethyl]-4-(4-chloranyl-2-methyl-phenoxy)butanamide

> <PUBCHEM_IUPAC_TRADITIONAL_NAME>
4-(4-chloro-2-methyl-phenoxy)-N-[2-[(5Z)-2,4-diketo-5-(3-pyridylmethylene)thiazolidin-3-yl]ethyl]butyramide

> <PUBCHEM_MOLECULAR_FORMULA>
C22H22ClN3O4S

> <PUBCHEM_MOLECULAR_WEIGHT>
459.94578

> <PUBCHEM_MONOISOTOPIC_WEIGHT>
459.101955

> <PUBCHEM_OPENEYE_CAN_SMILES>
CC1=C(C=CC(=C1)Cl)OCCCC(=O)NCCN2C(=O)C(=CC3=CN=CC=C3)SC2=O

> <PUBCHEM_OPENEYE_ISO_SMILES>
CC1=C(C=CC(=C1)Cl)OCCCC(=O)NCCN2C(=O)/C(=C/C3=CN=CC=C3)/SC2=O

> <PUBCHEM_TOTAL_CHARGE>
0

> <PUBCHEM_XLOGP3_AA>
3.6

$$$$
Written by BCL::WriteToMDL,44142086
MBcorina  10171218483D 1   1.00000     0.00000 
CORINA 3.49 0026  01.06.2011
 49 53  0  0  0  0  0  0  0  0999 V2000
   -0.0218    1.7577    0.0117 S   0  0  0  1  0  2  0  0  0  0  0  0
   -1.0727   -0.8155    0.0079 O   0  0  0  1  0  2  0  0  0  0  0  0
    3.8050    6.4385    0.0003 O   0  0  0  1  0  2  0  0  0  0  0  0
    3.3407    8.6102    0.0164 O   0  0  0  1  0  1  0  0  0  0  0  0
    7.4765   11.1304   -0.0105 N   0  0  0  1  0  3  0  0  0  0  0  0
    0.7158   -2.0032   -0.0155 N   0  0  0  1  0  2  0  0  0  0  0  0
    1.0715   -0.7668   -0.0123 N   0  0  0  1  0  2  0  0  0  0  0  0
    6.0133    9.4365   -0.0047 C   0  0  0  1  0  3  0  0  0  0  0  0
    7.3830    9.7546   -0.0164 C   0  0  0  1  0  3  0  0  0  0  0  0
   -0.7473   -4.6262   -0.0156 C   0  0  0  1  0  3  0  0  0  0  0  0
   -1.5555   -5.7896   -0.0137 C   0  0  0  1  0  3  0  0  0  0  0  0
   -1.3959   -3.3166   -0.0024 C   0  0  0  1  0  3  0  0  0  0  0  0
    5.6114    8.0834   -0.0081 C   0  0  0  1  0  3  0  0  0  0  0  0
    5.3099   10.6657    0.0092 C   0  0  0  1  0  3  0  0  0  0  0  0
    8.3261    8.7346   -0.0315 C   0  0  0  1  0  3  0  0  0  0  0  0
    0.6466   -4.7522   -0.0359 C   0  0  0  1  0  3  0  0  0  0  0  0
   -2.9546   -5.6587    0.0004 C   0  0  0  1  0  3  0  0  0  0  0  0
    6.2161   11.6589    0.0059 C   0  0  0  1  0  3  0  0  0  0  0  0
   -2.7832   -3.2619    0.0116 C   0  0  0  1  0  3  0  0  0  0  0  0
    6.5810    7.0828   -0.0223 C   0  0  0  1  0  3  0  0  0  0  0  0
   -0.9397   -7.0526   -0.0264 C   0  0  0  1  0  3  0  0  0  0  0  0
    7.9232    7.4139   -0.0339 C   0  0  0  1  0  3  0  0  0  0  0  0
   -3.5364   -4.4286    0.0130 C   0  0  0  1  0  3  0  0  0  0  0  0
   -0.5941   -2.0799   -0.0034 C   0  0  0  1  0  3  0  0  0  0  0  0
    1.2107   -5.9933   -0.0535 C   0  0  0  1  0  3  0  0  0  0  0  0
    0.4193   -7.1390   -0.0403 C   0  0  0  1  0  3  0  0  0  0  0  0
    4.1815    7.7327    0.0037 C   0  0  0  1  0  3  0  0  0  0  0  0
    0.0021   -0.0041    0.0020 C   0  0  0  1  0  3  0  0  0  0  0  0
    2.3786    6.1669    0.0125 C   0  0  0  1  0  4  0  0  0  0  0  0
    1.7562    2.0963   -0.0035 C   0  0  0  1  0  4  0  0  0  0  0  0
    2.1561    4.7119    0.0068 C   0  0  0  1  0  2  0  0  0  0  0  0
    1.9787    3.5514    0.0022 C   0  0  0  1  0  2  0  0  0  0  0  0
    4.2365   10.7841    0.0205 H   0  0  0  1  0  1  0  0  0  0  0  0
    8.3019   11.6399   -0.0124 H   0  0  0  1  0  1  0  0  0  0  0  0
    9.3788    8.9757   -0.0418 H   0  0  0  1  0  1  0  0  0  0  0  0
    1.2716   -3.8714   -0.0379 H   0  0  0  1  0  1  0  0  0  0  0  0
   -3.5743   -6.5432    0.0019 H   0  0  0  1  0  1  0  0  0  0  0  0
    5.9836   12.7135    0.0143 H   0  0  0  1  0  1  0  0  0  0  0  0
   -3.2810   -2.3035    0.0218 H   0  0  0  1  0  1  0  0  0  0  0  0
    6.2829    6.0448   -0.0250 H   0  0  0  1  0  1  0  0  0  0  0  0
   -1.5409   -7.9498   -0.0247 H   0  0  0  1  0  1  0  0  0  0  0  0
    8.6658    6.6297   -0.0453 H   0  0  0  1  0  1  0  0  0  0  0  0
   -4.6140   -4.3577    0.0240 H   0  0  0  1  0  1  0  0  0  0  0  0
    2.2863   -6.0892   -0.0691 H   0  0  0  1  0  1  0  0  0  0  0  0
    0.8903   -8.1108   -0.0497 H   0  0  0  1  0  1  0  0  0  0  0  0
    1.9341    6.5990    0.9091 H   0  0  0  1  0  1  0  0  0  0  0  0
    1.9171    6.6085   -0.8708 H   0  0  0  1  0  1  0  0  0  0  0  0
    2.2177    1.6547    0.8798 H   0  0  0  1  0  1  0  0  0  0  0  0
    2.2007    1.6643   -0.9001 H   0  0  0  1  0  1  0  0  0  0  0  0
  1 28  1  0  0  0  0
  1 30  1  0  0  0  0
  2 24  1  0  0  0  0
  2 28  1  0  0  0  0
  3 27  1  0  0  0  0
  3 29  1  0  0  0  0
  4 27  2  0  0  0  0
  5  9  1  0  0  0  0
  5 18  1  0  0  0  0
  5 34  1  0  0  0  0
  6  7  1  0  0  0  0
  6 24  2  0  0  0  0
  7 28  2  0  0  0  0
  8  9  1  0  0  0  0
  8 13  2  0  0  0  0
  8 14  1  0  0  0  0
  9 15  2  0  0  0  0
 10 11  1  0  0  0  0
 10 12  1  0  0  0  0
 10 16  2  0  0  0  0
 11 17  1  0  0  0  0
 11 21  2  0  0  0  0
 12 19  2  0  0  0  0
 12 24  1  0  0  0  0
 13 20  1  0  0  0  0
 13 27  1  0  0  0  0
 14 18  2  0  0  0  0
 14 33  1  0  0  0  0
 15 22  1  0  0  0  0
 15 35  1  0  0  0  0
 16 25  1  0  0  0  0
 16 36  1  0  0  0  0
 17 23  2  0  0  0  0
 17 37  1  0  0  0  0
 18 38  1  0  0  0  0
 19 23  1  0  0  0  0
 19 39  1  0  0  0  0
 20 22  2  0  0  0  0
 20 40  1  0  0  0  0
 21 26  1  0  0  0  0
 21 41  1  0  0  0  0
 22 42  1  0  0  0  0
 23 43  1  0  0  0  0
 25 26  2  0  0  0  0
 25 44  1  0  0  0  0
 26 45  1  0  0  0  0
 29 31  1  0  0  0  0
 29 46  1  0  0  0  0
 29 47  1  0  0  0  0
 30 32  1  0  0  0  0
 30 48  1  0  0  0  0
 30 49  1  0  0  0  0
 31 32  3  0  0  0  0
M  END
> <Activity>
0.50598

> <Mapped(file=504701.csv.activities,property=Cached(PUBCHEM_COMPOUND_CID))>
0.50598

> <PUBCHEM_ATOM_DEF_STEREO_COUNT>
0

> <PUBCHEM_ATOM_UDEF_STEREO_COUNT>
0

> <PUBCHEM_BONDANNOTATIONS>
10  11  8
10  12  8
10  16  8
11  17  8
11  21  8
12  19  8
13  20  8
14  18  8
15  22  8
16  25  8
17  23  8
19  23  8
2  24  8
2  28  8
20  22  8
21  26  8
25  26  8
5  18  8
5  9  8
6  24  8
6  7  8
7  28  8
8  13  8
8  14  8
8  9  8
9  15  8

> <PUBCHEM_BOND_DEF_STEREO_COUNT>
0

> <PUBCHEM_BOND_UDEF_STEREO_COUNT>
0

> <PUBCHEM_CACTVS_COMPLEXITY>
722

> <PUBCHEM_CACTVS_HBOND_ACCEPTOR>
4

> <PUBCHEM_CACTVS_HBOND_DONOR>
1

> <PUBCHEM_CACTVS_ROTATABLE_BOND>
6

> <PUBCHEM_CACTVS_SUBSKEYS>
AAADceB7MABAAAAAAAAAAAAAAAAAAWLAAAAwYMAAAAAAAFjB/AAAHgQYAAAADAjl3ga8yPLJlEjqEzX3XACSgCB9AjAa2aE4bNgIJvLAtZmOMQhk2AHI6Ye82eKOgAACQAASAAAAAASAACQAAAAAAAAAAA==

> <PUBCHEM_CACTVS_TAUTO_COUNT>
3

> <PUBCHEM_CACTVS_TPSA>
106

> <PUBCHEM_COMPONENT_COUNT>
1

> <PUBCHEM_COMPOUND_CANONICALIZED>
1

> <PUBCHEM_COMPOUND_CID>
44142086

> <PUBCHEM_COORDINATE_TYPE>
1
5
255

> <PUBCHEM_EXACT_MASS>
439.099062

> <PUBCHEM_HEAVY_ATOM_COUNT>
32

> <PUBCHEM_ISOTOPIC_ATOM_COUNT>
0

> <PUBCHEM_IUPAC_CAS_NAME>
1H-indole-4-carboxylic acid 4-[[5-(1-naphthalenyl)-1,3,4-oxadiazol-2-yl]thio]but-2-ynyl ester

> <PUBCHEM_IUPAC_INCHI>
InChI=1S/C25H17N3O3S/c29-24(21-11-6-12-22-19(21)13-14-26-22)30-15-3-4-16-32-25-28-27-23(31-25)20-10-5-8-17-7-1-2-9-18(17)20/h1-2,5-14,26H,15-16H2

> <PUBCHEM_IUPAC_INCHIKEY>
QAGFDTOVQKCZRK-UHFFFAOYSA-N

> <PUBCHEM_IUPAC_NAME>
4-[(5-naphthalen-1-yl-1,3,4-oxadiazol-2-yl)sulfanyl]but-2-ynyl 1H-indole-4-carboxylate

> <PUBCHEM_IUPAC_OPENEYE_NAME>
4-[[5-(1-naphthyl)-1,3,4-oxadiazol-2-yl]sulfanyl]but-2-ynyl 1H-indole-4-carboxylate

> <PUBCHEM_IUPAC_SYSTEMATIC_NAME>
4-[(5-naphthalen-1-yl-1,3,4-oxadiazol-2-yl)sulfanyl]but-2-ynyl 1H-indole-4-carboxylate

> <PUBCHEM_IUPAC_TRADITIONAL_NAME>
1H-indole-4-carboxylic acid 4-[[5-(1-naphthyl)-1,3,4-oxadiazol-2-yl]thio]but-2-ynyl ester

> <PUBCHEM_MOLECULAR_FORMULA>
C25H17N3O3S

> <PUBCHEM_MOLECULAR_WEIGHT>
439.48578

> <PUBCHEM_MONOISOTOPIC_WEIGHT>
439.099062

> <PUBCHEM_OPENEYE_CAN_SMILES>
C1=CC=C2C(=C1)C=CC=C2C3=NN=C(O3)SCC#CCOC(=O)C4=C5C=CNC5=CC=C4

> <PUBCHEM_OPENEYE_ISO_SMILES>
C1=CC=C2C(=C1)C=CC=C2C3=NN=C(O3)SCC#CCOC(=O)C4=C5C=CNC5=CC=C4

> <PUBCHEM_TOTAL_CHARGE>
0

> <PUBCHEM_XLOGP3_AA>
5.2

$$$$
Written by BCL::WriteToMDL,25163569
MBcorina  10171218483D 1   1.00000     0.00000 
CORINA 3.49 0026  01.06.2011
 48 50  0  0  0  0  0  0  0  0999 V2000
   -0.1514    1.5854    0.0121 O   0  0  0  1  0  2  0  0  0  0  0  0
   -0.1542   -2.1957   -2.3150 O   0  0  0  1  0  2  0  0  0  0  0  0
   -4.0262   -0.6442    2.2893 O   0  0  0  1  0  1  0  0  0  0  0  0
   -1.3373   -0.5488   -3.2269 O   0  0  0  1  0  1  0  0  0  0  0  0
    3.3658    3.8041   -0.0674 O   0  0  0  1  0  2  0  0  0  0  0  0
    2.0644    1.6867   -0.0990 O   0  0  0  1  0  1  0  0  0  0  0  0
   -4.0377   -1.5023    0.2541 N   0  0  0  1  0  3  0  0  0  0  0  0
   -2.1942   -0.3215    1.1126 N   0  0  0  1  0  3  0  0  0  0  0  0
   -3.3066   -1.7056   -1.0079 C   0  0  0  1  0  4  0  0  0  0  0  0
   -1.9113   -1.1212   -1.0948 C   0  0  0  1  0  3  0  0  0  0  0  0
   -1.4389   -0.4590   -0.0168 C   0  0  0  1  0  3  0  0  0  0  0  0
   -3.2029   -3.2119   -1.2556 C   0  0  0  1  0  4  0  0  0  0  0  0
   -0.0561    0.1383   -0.0610 C   0  0  0  1  0  4  0  0  0  0  0  0
   -3.4311   -0.8174    1.2436 C   0  0  0  1  0  3  0  0  0  0  0  0
   -1.1298   -1.2647   -2.2651 C   0  0  0  1  0  3  0  0  0  0  0  0
    0.9856    3.7469    0.0544 C   0  0  0  1  0  3  0  0  0  0  0  0
    2.1513    5.8662    0.0936 C   0  0  0  1  0  3  0  0  0  0  0  0
    0.9046    6.5303    0.2013 C   0  0  0  1  0  3  0  0  0  0  0  0
    2.1835    4.4581    0.0252 C   0  0  0  1  0  3  0  0  0  0  0  0
    1.0052    2.2770   -0.0158 C   0  0  0  1  0  3  0  0  0  0  0  0
   -0.2434    4.4266    0.1565 C   0  0  0  1  0  3  0  0  0  0  0  0
   -0.2873    5.7795    0.2282 C   0  0  0  1  0  3  0  0  0  0  0  0
    3.3350    6.6206    0.0679 C   0  0  0  1  0  3  0  0  0  0  0  0
    0.8772    7.9323    0.2696 C   0  0  0  1  0  3  0  0  0  0  0  0
    0.5956   -2.2853   -3.5282 C   0  0  0  1  0  4  0  0  0  0  0  0
    3.2709    7.9791    0.1467 C   0  0  0  1  0  3  0  0  0  0  0  0
    2.0447    8.6335    0.2316 C   0  0  0  1  0  3  0  0  0  0  0  0
    1.6480   -3.3881   -3.3970 C   0  0  0  1  0  4  0  0  0  0  0  0
   -3.9017   -1.2764   -1.8140 H   0  0  0  1  0  1  0  0  0  0  0  0
   -4.9362   -1.8493    0.3689 H   0  0  0  1  0  1  0  0  0  0  0  0
   -4.2036   -3.6381   -1.3269 H   0  0  0  1  0  1  0  0  0  0  0  0
   -2.6645   -3.3909   -2.1862 H   0  0  0  1  0  1  0  0  0  0  0  0
   -2.6667   -3.6797   -0.4299 H   0  0  0  1  0  1  0  0  0  0  0  0
    0.4333   -0.1470   -0.9922 H   0  0  0  1  0  1  0  0  0  0  0  0
    0.5262   -0.2305    0.7834 H   0  0  0  1  0  1  0  0  0  0  0  0
   -1.8132    0.1623    1.8621 H   0  0  0  1  0  1  0  0  0  0  0  0
   -1.1639    3.8622    0.1776 H   0  0  0  1  0  1  0  0  0  0  0  0
   -1.2390    6.2834    0.3102 H   0  0  0  1  0  1  0  0  0  0  0  0
    4.2918    6.1262   -0.0136 H   0  0  0  1  0  1  0  0  0  0  0  0
   -0.0655    8.4529    0.3516 H   0  0  0  1  0  1  0  0  0  0  0  0
   -0.0761   -2.5204   -4.3539 H   0  0  0  1  0  1  0  0  0  0  0  0
    1.0894   -1.3330   -3.7214 H   0  0  0  1  0  1  0  0  0  0  0  0
    4.1829    8.5573    0.1270 H   0  0  0  1  0  1  0  0  0  0  0  0
    2.0196    9.7119    0.2844 H   0  0  0  1  0  1  0  0  0  0  0  0
    2.3196   -3.1530   -2.5713 H   0  0  0  1  0  1  0  0  0  0  0  0
    1.1542   -4.3405   -3.2039 H   0  0  0  1  0  1  0  0  0  0  0  0
    2.2199   -3.4565   -4.3224 H   0  0  0  1  0  1  0  0  0  0  0  0
    3.6631    3.6556   -0.9756 H   0  0  0  1  0  1  0  0  0  0  0  0
  1 13  1  0  0  0  0
  1 20  1  0  0  0  0
  2 15  1  0  0  0  0
  2 25  1  0  0  0  0
  3 14  2  0  0  0  0
  4 15  2  0  0  0  0
  5 19  1  0  0  0  0
  5 48  1  0  0  0  0
  6 20  2  0  0  0  0
  7  9  1  0  0  0  0
  7 14  1  0  0  0  0
  7 30  1  0  0  0  0
  8 11  1  0  0  0  0
  8 14  1  0  0  0  0
  8 36  1  0  0  0  0
  9 10  1  0  0  0  0
  9 12  1  0  0  0  0
  9 29  1  0  0  0  0
 10 11  2  0  0  0  0
 10 15  1  0  0  0  0
 11 13  1  0  0  0  0
 12 31  1  0  0  0  0
 12 32  1  0  0  0  0
 12 33  1  0  0  0  0
 13 34  1  0  0  0  0
 13 35  1  0  0  0  0
 16 19  2  0  0  0  0
 16 20  1  0  0  0  0
 16 21  1  0  0  0  0
 17 18  1  0  0  0  0
 17 19  1  0  0  0  0
 17 23  2  0  0  0  0
 18 22  1  0  0  0  0
 18 24  2  0  0  0  0
 21 22  2  0  0  0  0
 21 37  1  0  0  0  0
 22 38  1  0  0  0  0
 23 26  1  0  0  0  0
 23 39  1  0  0  0  0
 24 27  1  0  0  0  0
 24 40  1  0  0  0  0
 25 28  1  0  0  0  0
 25 41  1  0  0  0  0
 25 42  1  0  0  0  0
 26 27  2  0  0  0  0
 26 43  1  0  0  0  0
 27 44  1  0  0  0  0
 28 45  1  0  0  0  0
 28 46  1  0  0  0  0
 28 47  1  0  0  0  0
M  END
> <Activity>
1.618

> <Mapped(file=504701.csv.activities,property=Cached(PUBCHEM_COMPOUND_CID))>
1.618

> <PUBCHEM_ATOM_DEF_STEREO_COUNT>
0

> <PUBCHEM_ATOM_UDEF_STEREO_COUNT>
1

> <PUBCHEM_BONDANNOTATIONS>
16  19  8
16  21  8
17  18  8
17  19  8
17  23  8
18  22  8
18  24  8
21  22  8
23  26  8
24  27  8
26  27  8
9  12  3

> <PUBCHEM_BOND_DEF_STEREO_COUNT>
0

> <PUBCHEM_BOND_UDEF_STEREO_COUNT>
0

> <PUBCHEM_CACTVS_COMPLEXITY>
661

> <PUBCHEM_CACTVS_HBOND_ACCEPTOR>
6

> <PUBCHEM_CACTVS_HBOND_DONOR>
3

> <PUBCHEM_CACTVS_ROTATABLE_BOND>
7

> <PUBCHEM_CACTVS_SUBSKEYS>
AAADceB7OAAAAAAAAAAAAAAAAAAAAAAAAAAwYIAAAAAAAADBUAAAHgAQCAAADCzhmAYzDsLABgCIAiTSWACCAAAkIAAIiIEMCMiKJz6CNRqHcUAv9hMYuceIyPCOwAADAAAYAACAAAYAADAAAAAAAAAAAA==

> <PUBCHEM_CACTVS_TAUTO_COUNT>
21

> <PUBCHEM_CACTVS_TPSA>
114

> <PUBCHEM_COMPONENT_COUNT>
1

> <PUBCHEM_COMPOUND_CANONICALIZED>
1

> <PUBCHEM_COMPOUND_CID>
25163569

> <PUBCHEM_COORDINATE_TYPE>
1
5
255

> <PUBCHEM_EXACT_MASS>
384.132136

> <PUBCHEM_HEAVY_ATOM_COUNT>
28

> <PUBCHEM_ISOTOPIC_ATOM_COUNT>
0

> <PUBCHEM_IUPAC_CAS_NAME>
6-[[(1-hydroxy-2-naphthalenyl)-oxomethoxy]methyl]-4-methyl-2-oxo-3,4-dihydro-1H-pyrimidine-5-carboxylic acid ethyl ester

> <PUBCHEM_IUPAC_INCHI>
InChI=1S/C20H20N2O6/c1-3-27-19(25)16-11(2)21-20(26)22-15(16)10-28-18(24)14-9-8-12-6-4-5-7-13(12)17(14)23/h4-9,11,23H,3,10H2,1-2H3,(H2,21,22,26)

> <PUBCHEM_IUPAC_INCHIKEY>
KRXKZQPOMCCMPI-UHFFFAOYSA-N

> <PUBCHEM_IUPAC_NAME>
ethyl 6-[(1-hydroxynaphthalene-2-carbonyl)oxymethyl]-4-methyl-2-oxo-3,4-dihydro-1H-pyrimidine-5-carboxylate

> <PUBCHEM_IUPAC_OPENEYE_NAME>
ethyl 6-[(1-hydroxynaphthalene-2-carbonyl)oxymethyl]-4-methyl-2-oxo-3,4-dihydro-1H-pyrimidine-5-carboxylate

> <PUBCHEM_IUPAC_SYSTEMATIC_NAME>
ethyl 4-methyl-2-oxidanylidene-6-[(1-oxidanylnaphthalen-2-yl)carbonyloxymethyl]-3,4-dihydro-1H-pyrimidine-5-carboxylate

> <PUBCHEM_IUPAC_TRADITIONAL_NAME>
6-[(1-hydroxy-2-naphthoyl)oxymethyl]-2-keto-4-methyl-3,4-dihydro-1H-pyrimidine-5-carboxylic acid ethyl ester

> <PUBCHEM_MOLECULAR_FORMULA>
C20H20N2O6

> <PUBCHEM_MOLECULAR_WEIGHT>
384.3826

> <PUBCHEM_MONOISOTOPIC_WEIGHT>
384.132136

> <PUBCHEM_OPENEYE_CAN_SMILES>
CCOC(=O)C1=C(NC(=O)NC1C)COC(=O)C2=C(C3=CC=CC=C3C=C2)O

> <PUBCHEM_OPENEYE_ISO_SMILES>
CCOC(=O)C1=C(NC(=O)NC1C)COC(=O)C2=C(C3=CC=CC=C3C=C2)O

> <PUBCHEM_TOTAL_CHARGE>
0

> <PUBCHEM_XLOGP3_AA>
2.5

$$$$
Written by BCL::WriteToMDL,2312882
MBcorina  10171218483D 1   1.00000     0.00000 
CORINA 3.49 0026  01.06.2011
 27 29  0  0  0  0  0  0  0  0999 V2000
   -0.0218    1.7568    0.0117 S   0  0  0  1  0  2  0  0  0  0  0  0
   -4.0003   -1.1693    0.0359 S   0  0  0  1  0  2  0  0  0  0  0  0
   -2.8566    1.4135    0.0381 S   0  0  0  1  0  2  0  0  0  0  0  0
    1.2383   -0.4187   -0.0120 N   0  0  0  1  0  2  0  0  0  0  0  0
   -0.9122   -3.4242   -0.0061 N   0  0  0  1  0  1  0  0  0  0  0  0
    3.6257    0.1751   -0.0321 C   0  0  0  1  0  3  0  0  0  0  0  0
    2.1812    0.5116   -0.0160 C   0  0  0  1  0  3  0  0  0  0  0  0
    0.0021   -0.0041    0.0020 C   0  0  0  1  0  3  0  0  0  0  0  0
    1.7399    1.7824   -0.0050 C   0  0  0  1  0  3  0  0  0  0  0  0
    4.0333   -1.1578   -0.0431 C   0  0  0  1  0  3  0  0  0  0  0  0
    4.5805    1.1905   -0.0420 C   0  0  0  1  0  3  0  0  0  0  0  0
   -1.1858   -0.8709    0.0095 C   0  0  0  1  0  3  0  0  0  0  0  0
    5.3786   -1.4650   -0.0580 C   0  0  0  1  0  3  0  0  0  0  0  0
    5.9230    0.8715   -0.0569 C   0  0  0  1  0  3  0  0  0  0  0  0
   -2.4672   -0.3035    0.0250 C   0  0  0  1  0  3  0  0  0  0  0  0
    6.3219   -0.4531   -0.0615 C   0  0  0  1  0  3  0  0  0  0  0  0
   -5.1285    0.1668    0.0544 C   0  0  0  1  0  3  0  0  0  0  0  0
   -4.6043    1.3508    0.0554 C   0  0  0  1  0  3  0  0  0  0  0  0
   -1.0332   -2.2947    0.0008 C   0  0  0  1  0  2  0  0  0  0  0  0
    2.3595    2.6670   -0.0065 H   0  0  0  1  0  1  0  0  0  0  0  0
    3.2978   -1.9486   -0.0396 H   0  0  0  1  0  1  0  0  0  0  0  0
    4.2702    2.2250   -0.0384 H   0  0  0  1  0  1  0  0  0  0  0  0
    5.6957   -2.4974   -0.0665 H   0  0  0  1  0  1  0  0  0  0  0  0
    6.6637    1.6574   -0.0646 H   0  0  0  1  0  1  0  0  0  0  0  0
    7.3737   -0.6982   -0.0728 H   0  0  0  1  0  1  0  0  0  0  0  0
   -6.1976    0.0137    0.0640 H   0  0  0  1  0  1  0  0  0  0  0  0
   -5.2095    2.2452    0.0663 H   0  0  0  1  0  1  0  0  0  0  0  0
  1  8  1  0  0  0  0
  1  9  1  0  0  0  0
  2 15  1  0  0  0  0
  2 17  1  0  0  0  0
  3 15  1  0  0  0  0
  3 18  1  0  0  0  0
  4  7  1  0  0  0  0
  4  8  2  0  0  0  0
  5 19  3  0  0  0  0
  6  7  1  0  0  0  0
  6 10  2  0  0  0  0
  6 11  1  0  0  0  0
  7  9  2  0  0  0  0
  8 12  1  0  0  0  0
  9 20  1  0  0  0  0
 10 13  1  0  0  0  0
 10 21  1  0  0  0  0
 11 14  2  0  0  0  0
 11 22  1  0  0  0  0
 12 15  2  0  0  0  0
 12 19  1  0  0  0  0
 13 16  2  0  0  0  0
 13 23  1  0  0  0  0
 14 16  1  0  0  0  0
 14 24  1  0  0  0  0
 16 25  1  0  0  0  0
 17 18  2  0  0  0  0
 17 26  1  0  0  0  0
 18 27  1  0  0  0  0
M  END
> <Activity>
0.74905

> <Mapped(file=504701.csv.activities,property=Cached(PUBCHEM_COMPOUND_CID))>
0.74905

> <PUBCHEM_ATOM_DEF_STEREO_COUNT>
0

> <PUBCHEM_ATOM_UDEF_STEREO_COUNT>
0

> <PUBCHEM_BONDANNOTATIONS>
1  8  8
1  9  8
10  13  8
11  14  8
13  16  8
14  16  8
4  7  8
4  8  8
6  10  8
6  11  8
7  9  8

> <PUBCHEM_BOND_DEF_STEREO_COUNT>
0

> <PUBCHEM_BOND_UDEF_STEREO_COUNT>
0

> <PUBCHEM_CACTVS_COMPLEXITY>
433

> <PUBCHEM_CACTVS_HBOND_ACCEPTOR>
4

> <PUBCHEM_CACTVS_HBOND_DONOR>
0

> <PUBCHEM_CACTVS_ROTATABLE_BOND>
2

> <PUBCHEM_CACTVS_SUBSKEYS>
AAADccBzAABgAAAAAAAAAAAAAAAAAWIAAAAwAAAAAAAAAAABwAAAHAQAAAAADAiFXgCwgZIIEAi0ByRiRACi8aBhCjgIiDQwJJgIoKKgkRGEIAhggACoiAcQgIAOAAAAAAAAAAAAAAAAAAAAAAAAAAAAAA==

> <PUBCHEM_CACTVS_TAUTO_COUNT>
1

> <PUBCHEM_CACTVS_TPSA>
116

> <PUBCHEM_COMPONENT_COUNT>
1

> <PUBCHEM_COMPOUND_CANONICALIZED>
1

> <PUBCHEM_COMPOUND_CID>
2312882

> <PUBCHEM_COORDINATE_TYPE>
1
5
255

> <PUBCHEM_EXACT_MASS>
299.984961

> <PUBCHEM_HEAVY_ATOM_COUNT>
19

> <PUBCHEM_ISOTOPIC_ATOM_COUNT>
0

> <PUBCHEM_IUPAC_CAS_NAME>
2-(1,3-dithiol-2-ylidene)-2-(4-phenyl-2-thiazolyl)acetonitrile

> <PUBCHEM_IUPAC_INCHI>
InChI=1S/C14H8N2S3/c15-8-11(14-17-6-7-18-14)13-16-12(9-19-13)10-4-2-1-3-5-10/h1-7,9H

> <PUBCHEM_IUPAC_INCHIKEY>
BGQJFBVOWLWREJ-UHFFFAOYSA-N

> <PUBCHEM_IUPAC_NAME>
2-(1,3-dithiol-2-ylidene)-2-(4-phenyl-1,3-thiazol-2-yl)acetonitrile

> <PUBCHEM_IUPAC_OPENEYE_NAME>
2-(1,3-dithiol-2-ylidene)-2-(4-phenylthiazol-2-yl)acetonitrile

> <PUBCHEM_IUPAC_SYSTEMATIC_NAME>
2-(1,3-dithiol-2-ylidene)-2-(4-phenyl-1,3-thiazol-2-yl)ethanenitrile

> <PUBCHEM_IUPAC_TRADITIONAL_NAME>
2-(1,3-dithiol-2-ylidene)-2-(4-phenylthiazol-2-yl)acetonitrile

> <PUBCHEM_MOLECULAR_FORMULA>
C14H8N2S3

> <PUBCHEM_MOLECULAR_WEIGHT>
300.42172

> <PUBCHEM_MONOISOTOPIC_WEIGHT>
299.984961

> <PUBCHEM_OPENEYE_CAN_SMILES>
C1=CC=C(C=C1)C2=CSC(=N2)C(=C3SC=CS3)C#N

> <PUBCHEM_OPENEYE_ISO_SMILES>
C1=CC=C(C=C1)C2=CSC(=N2)C(=C3SC=CS3)C#N

> <PUBCHEM_TOTAL_CHARGE>
0

> <PUBCHEM_XLOGP3_AA>
3.6

$$$$
Written by BCL::WriteToMDL,24789905
MBcorina  10171218483D 1   1.00000     0.00000 
CORINA 3.49 0026  01.06.2011
 53 56  0  0  0  0  0  0  0  0999 V2000
    0.1182    1.8085    0.0711 S   0  0  0  1  0  2  0  0  0  0  0  0
    7.3194   -0.3370   -5.6546 O   0  0  0  1  0  2  0  0  0  0  0  0
    4.5632   -0.3329   -1.7242 O   0  0  0  1  0  1  0  0  0  0  0  0
    3.3422    2.6355   -1.8689 O   0  0  0  1  0  1  0  0  0  0  0  0
    4.9934   -0.5882   -3.8856 N   0  0  0  1  0  3  0  0  0  0  0  0
    2.1835    0.7544   -1.9055 N   0  0  0  1  0  3  0  0  0  0  0  0
    6.9986   -1.5361   -4.9162 C   0  0  0  1  0  4  0  0  0  0  0  0
    8.3628   -2.2057   -4.6390 C   0  0  0  1  0  4  0  0  0  0  0  0
    9.2828   -1.6590   -5.7534 C   0  0  0  1  0  4  0  0  0  0  0  0
    8.3656   -0.7236   -6.5721 C   0  0  0  1  0  4  0  0  0  0  0  0
    6.3023   -1.1813   -3.6008 C   0  0  0  1  0  4  0  0  0  0  0  0
    4.1966   -0.1954   -2.8720 C   0  0  0  1  0  3  0  0  0  0  0  0
    2.8501    0.4147   -3.1650 C   0  0  0  1  0  4  0  0  0  0  0  0
    1.3023   -0.1865   -1.3870 C   0  0  0  1  0  3  0  0  0  0  0  0
    2.4810    1.9397   -1.3644 C   0  0  0  1  0  3  0  0  0  0  0  0
    0.3008    0.1362   -0.4699 C   0  0  0  1  0  3  0  0  0  0  0  0
    1.7698    2.4107   -0.1557 C   0  0  0  1  0  3  0  0  0  0  0  0
    1.4267   -1.5113   -1.8020 C   0  0  0  1  0  3  0  0  0  0  0  0
   -0.5504   -0.8424    0.0188 C   0  0  0  1  0  3  0  0  0  0  0  0
    2.3493    3.2569    0.7296 C   0  0  0  1  0  3  0  0  0  0  0  0
    0.5760   -2.4808   -1.3119 C   0  0  0  1  0  3  0  0  0  0  0  0
   -0.4124   -2.1519   -0.4022 C   0  0  0  1  0  3  0  0  0  0  0  0
    3.7778    3.5836    0.6074 C   0  0  0  1  0  3  0  0  0  0  0  0
    4.2294    4.8782    0.8858 C   0  0  0  1  0  3  0  0  0  0  0  0
    4.6933    2.6002    0.2177 C   0  0  0  1  0  3  0  0  0  0  0  0
    6.4689    4.1994    0.3767 C   0  0  0  1  0  3  0  0  0  0  0  0
    5.5704    5.1765    0.7689 C   0  0  0  1  0  3  0  0  0  0  0  0
    6.0310    2.9146    0.1055 C   0  0  0  1  0  3  0  0  0  0  0  0
    7.9327    4.5345    0.2505 C   0  0  0  1  0  4  0  0  0  0  0  0
    6.3680   -2.1932   -5.5151 H   0  0  0  1  0  1  0  0  0  0  0  0
    8.7381   -1.9160   -3.6575 H   0  0  0  1  0  1  0  0  0  0  0  0
    8.2778   -3.2900   -4.7116 H   0  0  0  1  0  1  0  0  0  0  0  0
   10.1129   -1.0989   -5.3229 H   0  0  0  1  0  1  0  0  0  0  0  0
    9.6526   -2.4729   -6.3770 H   0  0  0  1  0  1  0  0  0  0  0  0
    7.9446   -1.2561   -7.4249 H   0  0  0  1  0  1  0  0  0  0  0  0
    8.9197    0.1532   -6.9071 H   0  0  0  1  0  1  0  0  0  0  0  0
    6.9124   -0.4669   -3.0479 H   0  0  0  1  0  1  0  0  0  0  0  0
    6.1701   -2.0842   -3.0046 H   0  0  0  1  0  1  0  0  0  0  0  0
    4.7001   -0.4782   -4.8037 H   0  0  0  1  0  1  0  0  0  0  0  0
    2.2401   -0.2996   -3.7178 H   0  0  0  1  0  1  0  0  0  0  0  0
    2.9823    1.3176   -3.7612 H   0  0  0  1  0  1  0  0  0  0  0  0
    2.1945   -1.7809   -2.5120 H   0  0  0  1  0  1  0  0  0  0  0  0
   -1.3213   -0.5819    0.7289 H   0  0  0  1  0  1  0  0  0  0  0  0
    1.7621    3.6914    1.5251 H   0  0  0  1  0  1  0  0  0  0  0  0
    0.6825   -3.5038   -1.6412 H   0  0  0  1  0  1  0  0  0  0  0  0
   -1.0743   -2.9158   -0.0216 H   0  0  0  1  0  1  0  0  0  0  0  0
    3.5295    5.6419    1.1912 H   0  0  0  1  0  1  0  0  0  0  0  0
    4.3532    1.5973    0.0057 H   0  0  0  1  0  1  0  0  0  0  0  0
    5.9206    6.1753    0.9834 H   0  0  0  1  0  1  0  0  0  0  0  0
    6.7391    2.1566   -0.1953 H   0  0  0  1  0  1  0  0  0  0  0  0
    8.4303    4.3538    1.2033 H   0  0  0  1  0  1  0  0  0  0  0  0
    8.3837    3.9085   -0.5194 H   0  0  0  1  0  1  0  0  0  0  0  0
    8.0429    5.5837   -0.0236 H   0  0  0  1  0  1  0  0  0  0  0  0
  1 16  1  0  0  0  0
  1 17  1  0  0  0  0
  2  7  1  0  0  0  0
  2 10  1  0  0  0  0
  3 12  2  0  0  0  0
  4 15  2  0  0  0  0
  5 11  1  0  0  0  0
  5 12  1  0  0  0  0
  5 39  1  0  0  0  0
  6 13  1  0  0  0  0
  6 14  1  0  0  0  0
  6 15  1  0  0  0  0
  7  8  1  0  0  0  0
  7 11  1  0  0  0  0
  7 30  1  0  0  0  0
  8  9  1  0  0  0  0
  8 31  1  0  0  0  0
  8 32  1  0  0  0  0
  9 10  1  0  0  0  0
  9 33  1  0  0  0  0
  9 34  1  0  0  0  0
 10 35  1  0  0  0  0
 10 36  1  0  0  0  0
 11 37  1  0  0  0  0
 11 38  1  0  0  0  0
 12 13  1  0  0  0  0
 13 40  1  0  0  0  0
 13 41  1  0  0  0  0
 14 16  1  0  0  0  0
 14 18  2  0  0  0  0
 15 17  1  0  0  0  0
 16 19  2  0  0  0  0
 17 20  2  0  0  0  0
 18 21  1  0  0  0  0
 18 42  1  0  0  0  0
 19 22  1  0  0  0  0
 19 43  1  0  0  0  0
 20 23  1  0  0  0  0
 20 44  1  0  0  0  0
 21 22  2  0  0  0  0
 21 45  1  0  0  0  0
 22 46  1  0  0  0  0
 23 24  2  0  0  0  0
 23 25  1  0  0  0  0
 24 27  1  0  0  0  0
 24 47  1  0  0  0  0
 25 28  2  0  0  0  0
 25 48  1  0  0  0  0
 26 27  2  0  0  0  0
 26 28  1  0  0  0  0
 26 29  1  0  0  0  0
 27 49  1  0  0  0  0
 28 50  1  0  0  0  0
 29 51  1  0  0  0  0
 29 52  1  0  0  0  0
 29 53  1  0  0  0  0
M  END
> <Activity>
1.765

> <Mapped(file=504701.csv.activities,property=Cached(PUBCHEM_COMPOUND_CID))>
1.765

> <PUBCHEM_ATOM_DEF_STEREO_COUNT>
0

> <PUBCHEM_ATOM_UDEF_STEREO_COUNT>
1

> <PUBCHEM_BONDANNOTATIONS>
14  16  8
14  18  8
16  19  8
18  21  8
19  22  8
21  22  8
23  24  8
23  25  8
24  27  8
25  28  8
26  27  8
26  28  8
7  11  3

> <PUBCHEM_BOND_DEF_STEREO_COUNT>
1

> <PUBCHEM_BOND_UDEF_STEREO_COUNT>
0

> <PUBCHEM_CACTVS_COMPLEXITY>
630

> <PUBCHEM_CACTVS_HBOND_ACCEPTOR>
4

> <PUBCHEM_CACTVS_HBOND_DONOR>
1

> <PUBCHEM_CACTVS_ROTATABLE_BOND>
5

> <PUBCHEM_CACTVS_SUBSKEYS>
AAADceB7MABAAAAAAAAAAAAAAAAAASAAAAA8YIAAAAAAAACxQAAAHgQQAAAADBzh2AYywYPABAiIAiVSUACCAAAhChAIiJyIZMgKYCLgkbGXIAhklgD4yYeQkAIOQAAAAAAAAQCAAAAAAAACAAAAAAAAAA==

> <PUBCHEM_CACTVS_TAUTO_COUNT>
2

> <PUBCHEM_CACTVS_TPSA>
83.9

> <PUBCHEM_COMPONENT_COUNT>
1

> <PUBCHEM_COMPOUND_CANONICALIZED>
1

> <PUBCHEM_COMPOUND_CID>
24789905

> <PUBCHEM_COORDINATE_TYPE>
1
5
255

> <PUBCHEM_EXACT_MASS>
408.150764

> <PUBCHEM_HEAVY_ATOM_COUNT>
29

> <PUBCHEM_ISOTOPIC_ATOM_COUNT>
0

> <PUBCHEM_IUPAC_CAS_NAME>
2-[(2E)-2-[(4-methylphenyl)methylidene]-3-oxo-1,4-benzothiazin-4-yl]-N-(2-oxolanylmethyl)acetamide

> <PUBCHEM_IUPAC_INCHI>
InChI=1S/C23H24N2O3S/c1-16-8-10-17(11-9-16)13-21-23(27)25(19-6-2-3-7-20(19)29-21)15-22(26)24-14-18-5-4-12-28-18/h2-3,6-11,13,18H,4-5,12,14-15H2,1H3,(H,24,26)/b21-13+

> <PUBCHEM_IUPAC_INCHIKEY>
DQFOQICYWYTBRD-FYJGNVAPSA-N

> <PUBCHEM_IUPAC_NAME>
2-[(2E)-2-[(4-methylphenyl)methylidene]-3-oxo-1,4-benzothiazin-4-yl]-N-(oxolan-2-ylmethyl)acetamide

> <PUBCHEM_IUPAC_OPENEYE_NAME>
2-[(2E)-3-oxo-2-(p-tolylmethylene)-1,4-benzothiazin-4-yl]-N-(tetrahydrofuran-2-ylmethyl)acetamide

> <PUBCHEM_IUPAC_SYSTEMATIC_NAME>
2-[(2E)-2-[(4-methylphenyl)methylidene]-3-oxidanylidene-1,4-benzothiazin-4-yl]-N-(oxolan-2-ylmethyl)ethanamide

> <PUBCHEM_IUPAC_TRADITIONAL_NAME>
2-[(2E)-3-keto-2-(4-methylbenzylidene)-1,4-benzothiazin-4-yl]-N-(tetrahydrofurfuryl)acetamide

> <PUBCHEM_MOLECULAR_FORMULA>
C23H24N2O3S

> <PUBCHEM_MOLECULAR_WEIGHT>
408.51326

> <PUBCHEM_MONOISOTOPIC_WEIGHT>
408.150764

> <PUBCHEM_OPENEYE_CAN_SMILES>
CC1=CC=C(C=C1)C=C2C(=O)N(C3=CC=CC=C3S2)CC(=O)NCC4CCCO4

> <PUBCHEM_OPENEYE_ISO_SMILES>
CC1=CC=C(C=C1)/C=C/2\C(=O)N(C3=CC=CC=C3S2)CC(=O)NCC4CCCO4

> <PUBCHEM_TOTAL_CHARGE>
0

> <PUBCHEM_XLOGP3_AA>
3.8

$$$$
Written by BCL::WriteToMDL,2478417
MBcorina  10171218483D 1   1.00000     0.00000 
CORINA 3.49 0026  01.06.2011
 48 51  0  0  0  0  0  0  0  0999 V2000
   -0.0227    1.8204    0.0121 S   0  0  0  1  0  2  0  0  0  0  0  0
    9.4321   -0.0644   -6.7406 O   0  0  0  1  0  2  0  0  0  0  0  0
    8.2852    0.0580   -4.0536 O   0  0  0  1  0  2  0  0  0  0  0  0
    1.9126   -1.4573   -0.0244 O   0  0  0  1  0  1  0  0  0  0  0  0
   10.3562   -0.1868   -3.2863 O   0  0  0  1  0  1  0  0  0  0  0  0
    2.3716    3.0170   -0.0044 O   0  0  0  1  0  1  0  0  0  0  0  0
    5.7084    0.3574   -3.7096 O   0  0  0  1  0  1  0  0  0  0  0  0
    2.2585    0.7451   -0.0155 N   0  0  0  1  0  3  0  0  0  0  0  0
    5.6619    0.3538   -1.4915 N   0  0  0  1  0  3  0  0  0  0  0  0
   11.5535   -0.3096   -7.3360 C   0  0  0  1  0  3  0  0  0  0  0  0
   10.2458   -0.1548   -7.8083 C   0  0  0  1  0  3  0  0  0  0  0  0
   10.0175   -0.1224   -9.2014 C   0  0  0  1  0  3  0  0  0  0  0  0
   11.4696   -0.3060   -5.9213 C   0  0  0  1  0  3  0  0  0  0  0  0
   11.1140   -0.2469  -10.0884 C   0  0  0  1  0  3  0  0  0  0  0  0
   10.1561   -0.1540   -5.6045 C   0  0  0  1  0  3  0  0  0  0  0  0
   12.6299   -0.4341   -8.2388 C   0  0  0  1  0  3  0  0  0  0  0  0
    3.7136    0.5753   -0.0298 C   0  0  0  1  0  4  0  0  0  0  0  0
   12.4196   -0.4026   -9.5754 C   0  0  0  1  0  3  0  0  0  0  0  0
    4.2068    0.5236   -1.4772 C   0  0  0  1  0  4  0  0  0  0  0  0
    8.7239    0.0305   -9.7211 C   0  0  0  1  0  3  0  0  0  0  0  0
   12.6165   -0.4447   -4.9535 C   0  0  0  1  0  4  0  0  0  0  0  0
   10.8839   -0.2143  -11.4722 C   0  0  0  1  0  3  0  0  0  0  0  0
    1.4807   -0.3245   -0.0138 C   0  0  0  1  0  3  0  0  0  0  0  0
    9.6116   -0.0960   -4.2433 C   0  0  0  1  0  3  0  0  0  0  0  0
    0.0021   -0.0041    0.0020 C   0  0  0  1  0  4  0  0  0  0  0  0
    8.5368    0.0574  -11.0710 C   0  0  0  1  0  3  0  0  0  0  0  0
    9.6139   -0.0640  -11.9435 C   0  0  0  1  0  3  0  0  0  0  0  0
    1.7432    1.9762   -0.0040 C   0  0  0  1  0  3  0  0  0  0  0  0
    7.8172    0.1071   -2.6800 C   0  0  0  1  0  4  0  0  0  0  0  0
    6.3204    0.2817   -2.6652 C   0  0  0  1  0  3  0  0  0  0  0  0
   13.6339   -0.5530   -7.8591 H   0  0  0  1  0  1  0  0  0  0  0  0
    4.1824    1.4145    0.4840 H   0  0  0  1  0  1  0  0  0  0  0  0
    3.9760   -0.3534    0.4768 H   0  0  0  1  0  1  0  0  0  0  0  0
   13.2552   -0.4974  -10.2530 H   0  0  0  1  0  1  0  0  0  0  0  0
    3.9444    1.4523   -1.9839 H   0  0  0  1  0  1  0  0  0  0  0  0
    3.7380   -0.3156   -1.9911 H   0  0  0  1  0  1  0  0  0  0  0  0
    7.8795    0.1261   -9.0545 H   0  0  0  1  0  1  0  0  0  0  0  0
   13.0126    0.5425   -4.7157 H   0  0  0  1  0  1  0  0  0  0  0  0
   12.2651   -0.9250   -4.0403 H   0  0  0  1  0  1  0  0  0  0  0  0
   13.4012   -1.0520   -5.4047 H   0  0  0  1  0  1  0  0  0  0  0  0
   11.7102   -0.3077  -12.1613 H   0  0  0  1  0  1  0  0  0  0  0  0
   -0.4687   -0.4009    0.9015 H   0  0  0  1  0  1  0  0  0  0  0  0
   -0.4858   -0.3912   -0.8925 H   0  0  0  1  0  1  0  0  0  0  0  0
    6.1513    0.2933   -0.6563 H   0  0  0  1  0  1  0  0  0  0  0  0
    7.5395    0.1749  -11.4686 H   0  0  0  1  0  1  0  0  0  0  0  0
    9.4411   -0.0391  -13.0093 H   0  0  0  1  0  1  0  0  0  0  0  0
    8.0796   -0.8216   -2.1733 H   0  0  0  1  0  1  0  0  0  0  0  0
    8.2860    0.9463   -2.1661 H   0  0  0  1  0  1  0  0  0  0  0  0
  1 25  1  0  0  0  0
  1 28  1  0  0  0  0
  2 11  1  0  0  0  0
  2 15  1  0  0  0  0
  3 24  1  0  0  0  0
  3 29  1  0  0  0  0
  4 23  2  0  0  0  0
  5 24  2  0  0  0  0
  6 28  2  0  0  0  0
  7 30  2  0  0  0  0
  8 17  1  0  0  0  0
  8 23  1  0  0  0  0
  8 28  1  0  0  0  0
  9 19  1  0  0  0  0
  9 30  1  0  0  0  0
  9 44  1  0  0  0  0
 10 11  2  0  0  0  0
 10 13  1  0  0  0  0
 10 16  1  0  0  0  0
 11 12  1  0  0  0  0
 12 14  1  0  0  0  0
 12 20  2  0  0  0  0
 13 15  2  0  0  0  0
 13 21  1  0  0  0  0
 14 18  1  0  0  0  0
 14 22  2  0  0  0  0
 15 24  1  0  0  0  0
 16 18  2  0  0  0  0
 16 31  1  0  0  0  0
 17 19  1  0  0  0  0
 17 32  1  0  0  0  0
 17 33  1  0  0  0  0
 18 34  1  0  0  0  0
 19 35  1  0  0  0  0
 19 36  1  0  0  0  0
 20 26  1  0  0  0  0
 20 37  1  0  0  0  0
 21 38  1  0  0  0  0
 21 39  1  0  0  0  0
 21 40  1  0  0  0  0
 22 27  1  0  0  0  0
 22 41  1  0  0  0  0
 23 25  1  0  0  0  0
 25 42  1  0  0  0  0
 25 43  1  0  0  0  0
 26 27  2  0  0  0  0
 26 45  1  0  0  0  0
 27 46  1  0  0  0  0
 29 30  1  0  0  0  0
 29 47  1  0  0  0  0
 29 48  1  0  0  0  0
M  END
> <Activity>
1.227

> <Mapped(file=504701.csv.activities,property=Cached(PUBCHEM_COMPOUND_CID))>
1.227

> <PUBCHEM_ATOM_DEF_STEREO_COUNT>
0

> <PUBCHEM_ATOM_UDEF_STEREO_COUNT>
0

> <PUBCHEM_BONDANNOTATIONS>
10  11  8
10  13  8
10  16  8
11  12  8
12  14  8
12  20  8
13  15  8
14  18  8
14  22  8
16  18  8
2  11  8
2  15  8
20  26  8
22  27  8
26  27  8

> <PUBCHEM_BOND_DEF_STEREO_COUNT>
0

> <PUBCHEM_BOND_UDEF_STEREO_COUNT>
0

> <PUBCHEM_CACTVS_COMPLEXITY>
716

> <PUBCHEM_CACTVS_HBOND_ACCEPTOR>
7

> <PUBCHEM_CACTVS_HBOND_DONOR>
1

> <PUBCHEM_CACTVS_ROTATABLE_BOND>
7

> <PUBCHEM_CACTVS_SUBSKEYS>
AAADceB7OABAAAAAAAAAAAAAAAAAAWJAAAAwYAAAAAAAAEjB9AAAHgQQAAAADATl2AayDsPABEiIAqHSGAICCABkIBAIiIFMCMgPZjKENR6TOSCk1jGaqYeI7vzuwAADAAAYAACAAAYAADAAAAAAAAAAAA==

> <PUBCHEM_CACTVS_TAUTO_COUNT>
4

> <PUBCHEM_CACTVS_TPSA>
131

> <PUBCHEM_COMPONENT_COUNT>
1

> <PUBCHEM_COMPOUND_CANONICALIZED>
1

> <PUBCHEM_COMPOUND_CID>
2478417

> <PUBCHEM_COORDINATE_TYPE>
1
5
255

> <PUBCHEM_EXACT_MASS>
426.088557

> <PUBCHEM_HEAVY_ATOM_COUNT>
30

> <PUBCHEM_ISOTOPIC_ATOM_COUNT>
0

> <PUBCHEM_IUPAC_CAS_NAME>
3-methyl-2-benzo[g]benzofurancarboxylic acid [2-[2-(2,4-dioxo-3-thiazolidinyl)ethylamino]-2-oxoethyl] ester

> <PUBCHEM_IUPAC_INCHI>
InChI=1S/C21H18N2O6S/c1-12-14-7-6-13-4-2-3-5-15(13)19(14)29-18(12)20(26)28-10-16(24)22-8-9-23-17(25)11-30-21(23)27/h2-7H,8-11H2,1H3,(H,22,24)

> <PUBCHEM_IUPAC_INCHIKEY>
OPKQYOFSHKVQFK-UHFFFAOYSA-N

> <PUBCHEM_IUPAC_NAME>
[2-[2-(2,4-dioxo-1,3-thiazolidin-3-yl)ethylamino]-2-oxoethyl] 3-methylbenzo[g][1]benzofuran-2-carboxylate

> <PUBCHEM_IUPAC_OPENEYE_NAME>
[2-[2-(2,4-dioxothiazolidin-3-yl)ethylamino]-2-oxo-ethyl] 3-methylbenzo[g]benzofuran-2-carboxylate

> <PUBCHEM_IUPAC_SYSTEMATIC_NAME>
[2-[2-[2,4-bis(oxidanylidene)-1,3-thiazolidin-3-yl]ethylamino]-2-oxidanylidene-ethyl] 3-methylbenzo[g][1]benzofuran-2-carboxylate

> <PUBCHEM_IUPAC_TRADITIONAL_NAME>
3-methylbenzo[g]benzofuran-2-carboxylic acid [2-[2-(2,4-diketothiazolidin-3-yl)ethylamino]-2-keto-ethyl] ester

> <PUBCHEM_MOLECULAR_FORMULA>
C21H18N2O6S

> <PUBCHEM_MOLECULAR_WEIGHT>
426.44242

> <PUBCHEM_MONOISOTOPIC_WEIGHT>
426.088557

> <PUBCHEM_OPENEYE_CAN_SMILES>
CC1=C(OC2=C1C=CC3=CC=CC=C32)C(=O)OCC(=O)NCCN4C(=O)CSC4=O

> <PUBCHEM_OPENEYE_ISO_SMILES>
CC1=C(OC2=C1C=CC3=CC=CC=C32)C(=O)OCC(=O)NCCN4C(=O)CSC4=O

> <PUBCHEM_TOTAL_CHARGE>
0

> <PUBCHEM_XLOGP3_AA>
3.5

$$$$
Written by BCL::WriteToMDL,2998560
MBcorina  10171218483D 1   1.00000     0.00000 
CORINA 3.49 0026  01.06.2011
 32 34  0  0  0  0  0  0  0  0999 V2000
   -0.0325    1.7494    0.2624 S   0  0  0  1  0  2  0  0  0  0  0  0
    0.1457   -2.8935    0.0190 N   0  0  0  1  0  3  0  0  0  0  0  0
    1.2332   -0.4159    0.1102 N   0  0  0  1  0  2  0  0  0  0  0  0
   -3.5297    0.1684   -0.1791 N   0  0  0  1  0  1  0  0  0  0  0  0
   -1.5060   -4.6132   -0.0338 C   0  0  0  1  0  4  0  0  0  0  0  0
   -2.1833   -3.2267    0.0127 C   0  0  0  1  0  4  0  0  0  0  0  0
   -0.0622   -4.2687   -0.4626 C   0  0  0  1  0  4  0  0  0  0  0  0
   -1.0464   -2.2288    0.0135 C   0  0  0  1  0  3  0  0  0  0  0  0
   -1.1903   -0.8738    0.0095 C   0  0  0  1  0  3  0  0  0  0  0  0
   -0.0017   -0.0051    0.1135 C   0  0  0  1  0  3  0  0  0  0  0  0
    2.1732    0.5094    0.2133 C   0  0  0  1  0  3  0  0  0  0  0  0
    3.6180    0.1736    0.2218 C   0  0  0  1  0  3  0  0  0  0  0  0
    1.7288    1.7770    0.3101 C   0  0  0  1  0  3  0  0  0  0  0  0
   -2.4948   -0.2926   -0.0957 C   0  0  0  1  0  2  0  0  0  0  0  0
    4.0281   -1.1545    0.1195 C   0  0  0  1  0  3  0  0  0  0  0  0
    4.5708    1.1856    0.3263 C   0  0  0  1  0  3  0  0  0  0  0  0
    5.3737   -1.4610    0.1275 C   0  0  0  1  0  3  0  0  0  0  0  0
    5.9136    0.8673    0.3333 C   0  0  0  1  0  3  0  0  0  0  0  0
    6.3147   -0.4530    0.2368 C   0  0  0  1  0  3  0  0  0  0  0  0
   -1.5159   -5.0816    0.9504 H   0  0  0  1  0  1  0  0  0  0  0  0
   -1.9867   -5.2538   -0.7731 H   0  0  0  1  0  1  0  0  0  0  0  0
   -2.8116   -3.0832   -0.8664 H   0  0  0  1  0  1  0  0  0  0  0  0
   -2.7756   -3.1256    0.9222 H   0  0  0  1  0  1  0  0  0  0  0  0
    0.0328   -4.3105   -1.5477 H   0  0  0  1  0  1  0  0  0  0  0  0
    0.6473   -4.9485    0.0090 H   0  0  0  1  0  1  0  0  0  0  0  0
    0.9955   -2.5197    0.3000 H   0  0  0  1  0  1  0  0  0  0  0  0
    2.3457    2.6588    0.4009 H   0  0  0  1  0  1  0  0  0  0  0  0
    3.2942   -1.9423    0.0346 H   0  0  0  1  0  1  0  0  0  0  0  0
    4.2587    2.2168    0.4014 H   0  0  0  1  0  1  0  0  0  0  0  0
    5.6926   -2.4899    0.0487 H   0  0  0  1  0  1  0  0  0  0  0  0
    6.6527    1.6506    0.4142 H   0  0  0  1  0  1  0  0  0  0  0  0
    7.3667   -0.6975    0.2426 H   0  0  0  1  0  1  0  0  0  0  0  0
  1 10  1  0  0  0  0
  1 13  1  0  0  0  0
  2  7  1  0  0  0  0
  2  8  1  0  0  0  0
  2 26  1  0  0  0  0
  3 10  2  0  0  0  0
  3 11  1  0  0  0  0
  4 14  3  0  0  0  0
  5  6  1  0  0  0  0
  5  7  1  0  0  0  0
  5 20  1  0  0  0  0
  5 21  1  0  0  0  0
  6  8  1  0  0  0  0
  6 22  1  0  0  0  0
  6 23  1  0  0  0  0
  7 24  1  0  0  0  0
  7 25  1  0  0  0  0
  8  9  2  0  0  0  0
  9 10  1  0  0  0  0
  9 14  1  0  0  0  0
 11 12  1  0  0  0  0
 11 13  2  0  0  0  0
 12 15  2  0  0  0  0
 12 16  1  0  0  0  0
 13 27  1  0  0  0  0
 15 17  1  0  0  0  0
 15 28  1  0  0  0  0
 16 18  2  0  0  0  0
 16 29  1  0  0  0  0
 17 19  2  0  0  0  0
 17 30  1  0  0  0  0
 18 19  1  0  0  0  0
 18 31  1  0  0  0  0
 19 32  1  0  0  0  0
M  END
> <Activity>
2.436

> <Mapped(file=504701.csv.activities,property=Cached(PUBCHEM_COMPOUND_CID))>
2.436

> <PUBCHEM_ATOM_DEF_STEREO_COUNT>
0

> <PUBCHEM_ATOM_UDEF_STEREO_COUNT>
0

> <PUBCHEM_BONDANNOTATIONS>
1  10  8
1  13  8
11  13  8
12  15  8
12  16  8
15  17  8
16  18  8
17  19  8
18  19  8
3  10  8
3  11  8

> <PUBCHEM_BOND_DEF_STEREO_COUNT>
1

> <PUBCHEM_BOND_UDEF_STEREO_COUNT>
0

> <PUBCHEM_CACTVS_COMPLEXITY>
403

> <PUBCHEM_CACTVS_HBOND_ACCEPTOR>
3

> <PUBCHEM_CACTVS_HBOND_DONOR>
1

> <PUBCHEM_CACTVS_ROTATABLE_BOND>
2

> <PUBCHEM_CACTVS_SUBSKEYS>
AAADccBzAABAAAAAAAAAAAAAAAAAAWLAAAAwAAAAAAAAAAABwAAAHAQQAAAADAjFXgSwgZLIEAi0ByRiRACi8KBhCjgIiLQ4JJgIoKKgkRGEIAhgkACoiAcQgIAOAAAAAAAAAAAAAAAAAAAAAAAAAAAAAA==

> <PUBCHEM_CACTVS_TAUTO_COUNT>
3

> <PUBCHEM_CACTVS_TPSA>
77

> <PUBCHEM_COMPONENT_COUNT>
1

> <PUBCHEM_COMPOUND_CANONICALIZED>
1

> <PUBCHEM_COMPOUND_CID>
2998560

> <PUBCHEM_COORDINATE_TYPE>
1
5
255

> <PUBCHEM_EXACT_MASS>
267.083018

> <PUBCHEM_HEAVY_ATOM_COUNT>
19

> <PUBCHEM_ISOTOPIC_ATOM_COUNT>
0

> <PUBCHEM_IUPAC_CAS_NAME>
(2Z)-2-(4-phenyl-2-thiazolyl)-2-(2-pyrrolidinylidene)acetonitrile

> <PUBCHEM_IUPAC_INCHI>
InChI=1S/C15H13N3S/c16-9-12(13-7-4-8-17-13)15-18-14(10-19-15)11-5-2-1-3-6-11/h1-3,5-6,10,17H,4,7-8H2/b13-12-

> <PUBCHEM_IUPAC_INCHIKEY>
BHRZLQXUNCBBJD-SEYXRHQNSA-N

> <PUBCHEM_IUPAC_NAME>
(2Z)-2-(4-phenyl-1,3-thiazol-2-yl)-2-pyrrolidin-2-ylideneacetonitrile

> <PUBCHEM_IUPAC_OPENEYE_NAME>
(2Z)-2-(4-phenylthiazol-2-yl)-2-pyrrolidin-2-ylidene-acetonitrile

> <PUBCHEM_IUPAC_SYSTEMATIC_NAME>
(2Z)-2-(4-phenyl-1,3-thiazol-2-yl)-2-pyrrolidin-2-ylidene-ethanenitrile

> <PUBCHEM_IUPAC_TRADITIONAL_NAME>
(2Z)-2-(4-phenylthiazol-2-yl)-2-pyrrolidin-2-ylidene-acetonitrile

> <PUBCHEM_MOLECULAR_FORMULA>
C15H13N3S

> <PUBCHEM_MOLECULAR_WEIGHT>
267.34882

> <PUBCHEM_MONOISOTOPIC_WEIGHT>
267.083018

> <PUBCHEM_OPENEYE_CAN_SMILES>
C1CC(=C(C#N)C2=NC(=CS2)C3=CC=CC=C3)NC1

> <PUBCHEM_OPENEYE_ISO_SMILES>
C1C/C(=C(\C#N)/C2=NC(=CS2)C3=CC=CC=C3)/NC1

> <PUBCHEM_TOTAL_CHARGE>
0

> <PUBCHEM_XLOGP3_AA>
3

$$$$
Written by BCL::WriteToMDL,650554
MBcorina  10171218483D 1   1.00000     0.00000 
CORINA 3.49 0026  01.06.2011
 59 64  0  0  0  0  0  0  0  0999 V2000
    0.0902    1.2451   -0.1349 O   0  0  0  1  0  2  0  0  0  0  0  0
   -0.1509    2.1462    2.0050 O   0  0  0  1  0  2  0  0  0  0  0  0
   -5.6867   -1.0851   -8.7568 O   0  0  0  1  0  2  0  0  0  0  0  0
   -2.7936   -0.4160    0.0610 N   0  0  0  1  0  3  0  0  0  0  0  0
   -4.6510   -1.3886   -1.0812 N   0  0  0  1  0  3  0  0  0  0  0  0
   -4.3829   -1.0678   -2.4170 N   0  0  0  1  0  2  0  0  0  0  0  0
   -6.3215   -2.5399    0.1176 N   0  0  0  1  0  2  0  0  0  0  0  0
   -0.7574    1.2938    1.0196 C   0  0  0  1  0  4  0  0  0  0  0  0
   -2.1242    1.8604    0.6305 C   0  0  0  1  0  4  0  0  0  0  0  0
   -0.9218   -0.1133    1.5971 C   0  0  0  1  0  4  0  0  0  0  0  0
   -2.7585    0.9652   -0.4388 C   0  0  0  1  0  4  0  0  0  0  0  0
   -1.5450   -1.0269    0.5370 C   0  0  0  1  0  4  0  0  0  0  0  0
    0.7094    3.0319    1.2488 C   0  0  0  1  0  4  0  0  0  0  0  0
    1.2274    2.0905    0.1328 C   0  0  0  1  0  4  0  0  0  0  0  0
   -3.9765   -1.1256    0.0833 C   0  0  0  1  0  3  0  0  0  0  0  0
   -4.4911   -1.5759    1.2653 C   0  0  0  1  0  3  0  0  0  0  0  0
   -5.8231   -2.1009   -1.0459 C   0  0  0  1  0  3  0  0  0  0  0  0
   -5.6981   -2.2971    1.2593 C   0  0  0  1  0  3  0  0  0  0  0  0
   -6.2700   -2.2153   -2.3543 C   0  0  0  1  0  3  0  0  0  0  0  0
   -5.3495   -1.5550   -3.1738 C   0  0  0  1  0  3  0  0  0  0  0  0
   -6.2693   -2.7933    2.5338 C   0  0  0  1  0  3  0  0  0  0  0  0
   -5.4388   -1.4305   -4.6500 C   0  0  0  1  0  3  0  0  0  0  0  0
   -7.4620   -3.5154    2.5320 C   0  0  0  1  0  3  0  0  0  0  0  0
   -5.6130   -2.5447    3.7386 C   0  0  0  1  0  3  0  0  0  0  0  0
   -4.4462   -0.7522   -5.3546 C   0  0  0  1  0  3  0  0  0  0  0  0
   -6.5124   -1.9967   -5.3346 C   0  0  0  1  0  3  0  0  0  0  0  0
   -7.9891   -3.9748    3.7217 C   0  0  0  1  0  3  0  0  0  0  0  0
   -6.1497   -3.0092    4.9221 C   0  0  0  1  0  3  0  0  0  0  0  0
   -4.5315   -0.6385   -6.7265 C   0  0  0  1  0  3  0  0  0  0  0  0
   -6.5926   -1.8799   -6.7065 C   0  0  0  1  0  3  0  0  0  0  0  0
   -7.3364   -3.7202    4.9146 C   0  0  0  1  0  3  0  0  0  0  0  0
   -5.6050   -1.1990   -7.4053 C   0  0  0  1  0  3  0  0  0  0  0  0
   -6.8177   -1.6854   -9.3913 C   0  0  0  1  0  4  0  0  0  0  0  0
   -2.7690    1.8904    1.5089 H   0  0  0  1  0  1  0  0  0  0  0  0
   -2.0009    2.8684    0.2346 H   0  0  0  1  0  1  0  0  0  0  0  0
    0.0538   -0.5042    1.8861 H   0  0  0  1  0  1  0  0  0  0  0  0
   -1.5718   -0.0741    2.4711 H   0  0  0  1  0  1  0  0  0  0  0  0
   -2.1639    1.0086   -1.3513 H   0  0  0  1  0  1  0  0  0  0  0  0
   -3.7734    1.3051   -0.6449 H   0  0  0  1  0  1  0  0  0  0  0  0
   -1.7590   -2.0018    0.9750 H   0  0  0  1  0  1  0  0  0  0  0  0
   -0.8536   -1.1429   -0.2976 H   0  0  0  1  0  1  0  0  0  0  0  0
    2.0714    1.4995    0.4884 H   0  0  0  1  0  1  0  0  0  0  0  0
    1.5015    2.6600   -0.7552 H   0  0  0  1  0  1  0  0  0  0  0  0
    0.1416    3.8614    0.8272 H   0  0  0  1  0  1  0  0  0  0  0  0
    1.5316    3.3968    1.8643 H   0  0  0  1  0  1  0  0  0  0  0  0
   -3.9765   -1.3806    2.1945 H   0  0  0  1  0  1  0  0  0  0  0  0
   -7.1680   -2.7190   -2.6802 H   0  0  0  1  0  1  0  0  0  0  0  0
   -7.9726   -3.7144    1.6014 H   0  0  0  1  0  1  0  0  0  0  0  0
   -4.6864   -1.9901    3.7456 H   0  0  0  1  0  1  0  0  0  0  0  0
   -3.6111   -0.3157   -4.8270 H   0  0  0  1  0  1  0  0  0  0  0  0
   -7.2808   -2.5268   -4.7915 H   0  0  0  1  0  1  0  0  0  0  0  0
   -8.9131   -4.5339    3.7216 H   0  0  0  1  0  1  0  0  0  0  0  0
   -5.6421   -2.8176    5.8559 H   0  0  0  1  0  1  0  0  0  0  0  0
   -3.7627   -0.1127   -7.2731 H   0  0  0  1  0  1  0  0  0  0  0  0
   -7.4242   -2.3187   -7.2376 H   0  0  0  1  0  1  0  0  0  0  0  0
   -7.7528   -4.0814    5.8433 H   0  0  0  1  0  1  0  0  0  0  0  0
   -7.7324   -1.2367   -9.0037 H   0  0  0  1  0  1  0  0  0  0  0  0
   -6.7602   -1.5213  -10.4673 H   0  0  0  1  0  1  0  0  0  0  0  0
   -6.8233   -2.7560   -9.1868 H   0  0  0  1  0  1  0  0  0  0  0  0
  1  8  1  0  0  0  0
  1 14  1  0  0  0  0
  2  8  1  0  0  0  0
  2 13  1  0  0  0  0
  3 32  1  0  0  0  0
  3 33  1  0  0  0  0
  4 11  1  0  0  0  0
  4 12  1  0  0  0  0
  4 15  1  0  0  0  0
  5  6  1  0  0  0  0
  5 15  1  0  0  0  0
  5 17  1  0  0  0  0
  6 20  2  0  0  0  0
  7 17  1  0  0  0  0
  7 18  2  0  0  0  0
  8  9  1  0  0  0  0
  8 10  1  0  0  0  0
  9 11  1  0  0  0  0
  9 34  1  0  0  0  0
  9 35  1  0  0  0  0
 10 12  1  0  0  0  0
 10 36  1  0  0  0  0
 10 37  1  0  0  0  0
 11 38  1  0  0  0  0
 11 39  1  0  0  0  0
 12 40  1  0  0  0  0
 12 41  1  0  0  0  0
 13 14  1  0  0  0  0
 13 44  1  0  0  0  0
 13 45  1  0  0  0  0
 14 42  1  0  0  0  0
 14 43  1  0  0  0  0
 15 16  2  0  0  0  0
 16 18  1  0  0  0  0
 16 46  1  0  0  0  0
 17 19  2  0  0  0  0
 18 21  1  0  0  0  0
 19 20  1  0  0  0  0
 19 47  1  0  0  0  0
 20 22  1  0  0  0  0
 21 23  2  0  0  0  0
 21 24  1  0  0  0  0
 22 25  2  0  0  0  0
 22 26  1  0  0  0  0
 23 27  1  0  0  0  0
 23 48  1  0  0  0  0
 24 28  2  0  0  0  0
 24 49  1  0  0  0  0
 25 29  1  0  0  0  0
 25 50  1  0  0  0  0
 26 30  2  0  0  0  0
 26 51  1  0  0  0  0
 27 31  2  0  0  0  0
 27 52  1  0  0  0  0
 28 31  1  0  0  0  0
 28 53  1  0  0  0  0
 29 32  2  0  0  0  0
 29 54  1  0  0  0  0
 30 32  1  0  0  0  0
 30 55  1  0  0  0  0
 31 56  1  0  0  0  0
 33 57  1  0  0  0  0
 33 58  1  0  0  0  0
 33 59  1  0  0  0  0
M  END
> <Activity>
5.703

> <Mapped(file=504701.csv.activities,property=Cached(PUBCHEM_COMPOUND_CID))>
5.703

> <PUBCHEM_ATOM_DEF_STEREO_COUNT>
0

> <PUBCHEM_ATOM_UDEF_STEREO_COUNT>
0

> <PUBCHEM_BONDANNOTATIONS>
15  16  8
16  18  8
17  19  8
19  20  8
21  23  8
21  24  8
22  25  8
22  26  8
23  27  8
24  28  8
25  29  8
26  30  8
27  31  8
28  31  8
29  32  8
30  32  8
5  15  8
5  17  8
5  6  8
6  20  8
7  17  8
7  18  8

> <PUBCHEM_BOND_DEF_STEREO_COUNT>
0

> <PUBCHEM_BOND_UDEF_STEREO_COUNT>
0

> <PUBCHEM_CACTVS_COMPLEXITY>
635

> <PUBCHEM_CACTVS_HBOND_ACCEPTOR>
4

> <PUBCHEM_CACTVS_HBOND_DONOR>
0

> <PUBCHEM_CACTVS_ROTATABLE_BOND>
4

> <PUBCHEM_CACTVS_SUBSKEYS>
AAADceB7sAAAAAAAAAAAAAAAAAAAAWJAAAA8eIEAAAAAAFgB9AAAHgAIAAAADAzhnwYzvp8IFACiAyZiZACSjCshIqAdmCA+bJidLuLE+dumtChuyBPO6CeQ0KEOIAAAAAAAAABAAAAAAAAAAAAAAAAAAA==

> <PUBCHEM_CACTVS_TAUTO_COUNT>
1

> <PUBCHEM_CACTVS_TPSA>
61.1

> <PUBCHEM_COMPONENT_COUNT>
1

> <PUBCHEM_COMPOUND_CANONICALIZED>
1

> <PUBCHEM_COMPOUND_CID>
650554

> <PUBCHEM_COORDINATE_TYPE>
1
5
255

> <PUBCHEM_EXACT_MASS>
442.200491

> <PUBCHEM_HEAVY_ATOM_COUNT>
33

> <PUBCHEM_ISOTOPIC_ATOM_COUNT>
0

> <PUBCHEM_IUPAC_CAS_NAME>
8-[2-(4-methoxyphenyl)-5-phenyl-7-pyrazolo[1,5-a]pyrimidinyl]-1,4-dioxa-8-azaspiro[4.5]decane

> <PUBCHEM_IUPAC_INCHI>
InChI=1S/C26H26N4O3/c1-31-21-9-7-20(8-10-21)23-17-24-27-22(19-5-3-2-4-6-19)18-25(30(24)28-23)29-13-11-26(12-14-29)32-15-16-33-26/h2-10,17-18H,11-16H2,1H3

> <PUBCHEM_IUPAC_INCHIKEY>
RGSXJCBSMXDJGZ-UHFFFAOYSA-N

> <PUBCHEM_IUPAC_NAME>
8-[2-(4-methoxyphenyl)-5-phenylpyrazolo[1,5-a]pyrimidin-7-yl]-1,4-dioxa-8-azaspiro[4.5]decane

> <PUBCHEM_IUPAC_OPENEYE_NAME>
8-[2-(4-methoxyphenyl)-5-phenyl-pyrazolo[1,5-a]pyrimidin-7-yl]-1,4-dioxa-8-azaspiro[4.5]decane

> <PUBCHEM_IUPAC_SYSTEMATIC_NAME>
8-[2-(4-methoxyphenyl)-5-phenyl-pyrazolo[1,5-a]pyrimidin-7-yl]-1,4-dioxa-8-azaspiro[4.5]decane

> <PUBCHEM_IUPAC_TRADITIONAL_NAME>
8-[2-(4-methoxyphenyl)-5-phenyl-pyrazolo[1,5-a]pyrimidin-7-yl]-1,4-dioxa-8-azaspiro[4.5]decane

> <PUBCHEM_MOLECULAR_FORMULA>
C26H26N4O3

> <PUBCHEM_MOLECULAR_WEIGHT>
442.50964

> <PUBCHEM_MONOISOTOPIC_WEIGHT>
442.200491

> <PUBCHEM_OPENEYE_CAN_SMILES>
COC1=CC=C(C=C1)C2=NN3C(=C2)N=C(C=C3N4CCC5(CC4)OCCO5)C6=CC=CC=C6

> <PUBCHEM_OPENEYE_ISO_SMILES>
COC1=CC=C(C=C1)C2=NN3C(=C2)N=C(C=C3N4CCC5(CC4)OCCO5)C6=CC=CC=C6

> <PUBCHEM_TOTAL_CHARGE>
0

> <PUBCHEM_XLOGP3_AA>
4

$$$$
Written by BCL::WriteToMDL,5405772
MBcorina  10171218483D 1   1.00000     0.00000 
CORINA 3.49 0026  01.06.2011
 38 40  0  0  0  0  0  0  0  0999 V2000
    5.7592    1.7327   -1.0279 O   0  0  0  1  0  1  0  0  0  0  0  0
   -0.0310    1.2673   -0.4136 N   0  0  0  1  0  3  0  0  0  0  0  0
    3.4993    1.0466   -0.0984 N   0  0  0  1  0  3  0  0  0  0  0  0
    0.1698   -0.1135   -0.5337 N   0  0  0  1  0  2  0  0  0  0  0  0
    2.1142    0.8695   -0.2484 C   0  0  0  1  0  3  0  0  0  0  0  0
    1.1757    1.8518   -0.2392 C   0  0  0  1  0  3  0  0  0  0  0  0
    1.4520   -0.3537   -0.4352 C   0  0  0  1  0  3  0  0  0  0  0  0
    5.3820    1.4921    1.2664 C   0  0  0  1  0  3  0  0  0  0  0  0
    6.0171    1.5095    2.5949 C   0  0  0  1  0  3  0  0  0  0  0  0
    7.4049    1.7523    2.6872 C   0  0  0  1  0  3  0  0  0  0  0  0
    4.0228    1.2584    1.1251 C   0  0  0  1  0  3  0  0  0  0  0  0
    1.4331    3.3265   -0.0657 C   0  0  0  1  0  4  0  0  0  0  0  0
    2.1052   -1.7098   -0.5095 C   0  0  0  1  0  4  0  0  0  0  0  0
    6.2355    1.7366    0.0972 C   0  0  0  1  0  3  0  0  0  0  0  0
   -1.3217    1.9579   -0.4730 C   0  0  0  1  0  4  0  0  0  0  0  0
    5.2711    1.2915    3.7529 C   0  0  0  1  0  3  0  0  0  0  0  0
    8.1688    1.9753    1.5183 C   0  0  0  1  0  3  0  0  0  0  0  0
    7.6142    1.9758    0.2892 C   0  0  0  1  0  3  0  0  0  0  0  0
    8.0126    1.7695    3.9511 C   0  0  0  1  0  3  0  0  0  0  0  0
    5.8972    1.3151    4.9794 C   0  0  0  1  0  3  0  0  0  0  0  0
    7.2626    1.5531    5.0703 C   0  0  0  1  0  3  0  0  0  0  0  0
    4.0791    1.0163   -0.8754 H   0  0  0  1  0  1  0  0  0  0  0  0
    3.3836    1.2462    1.9955 H   0  0  0  1  0  1  0  0  0  0  0  0
    1.3982    3.5793    0.9940 H   0  0  0  1  0  1  0  0  0  0  0  0
    2.4165    3.5732   -0.4659 H   0  0  0  1  0  1  0  0  0  0  0  0
    0.6708    3.8937   -0.5999 H   0  0  0  1  0  1  0  0  0  0  0  0
    2.4918   -1.8722   -1.5156 H   0  0  0  1  0  1  0  0  0  0  0  0
    2.9253   -1.7578    0.2070 H   0  0  0  1  0  1  0  0  0  0  0  0
    1.3711   -2.4801   -0.2735 H   0  0  0  1  0  1  0  0  0  0  0  0
   -1.7436    2.0263    0.5297 H   0  0  0  1  0  1  0  0  0  0  0  0
   -1.1790    2.9605   -0.8763 H   0  0  0  1  0  1  0  0  0  0  0  0
   -2.0026    1.4009   -1.1165 H   0  0  0  1  0  1  0  0  0  0  0  0
    4.2092    1.1056    3.6883 H   0  0  0  1  0  1  0  0  0  0  0  0
    9.2288    2.1590    1.6136 H   0  0  0  1  0  1  0  0  0  0  0  0
    8.2418    2.1556   -0.5712 H   0  0  0  1  0  1  0  0  0  0  0  0
    9.0733    1.9535    4.0384 H   0  0  0  1  0  1  0  0  0  0  0  0
    5.3218    1.1469    5.8778 H   0  0  0  1  0  1  0  0  0  0  0  0
    7.7372    1.5678    6.0403 H   0  0  0  1  0  1  0  0  0  0  0  0
  1 14  2  0  0  0  0
  2  4  1  0  0  0  0
  2  6  1  0  0  0  0
  2 15  1  0  0  0  0
  3  5  1  0  0  0  0
  3 11  1  0  0  0  0
  3 22  1  0  0  0  0
  4  7  2  0  0  0  0
  5  6  2  0  0  0  0
  5  7  1  0  0  0  0
  6 12  1  0  0  0  0
  7 13  1  0  0  0  0
  8  9  1  0  0  0  0
  8 11  2  0  0  0  0
  8 14  1  0  0  0  0
  9 10  1  0  0  0  0
  9 16  2  0  0  0  0
 10 17  1  0  0  0  0
 10 19  2  0  0  0  0
 11 23  1  0  0  0  0
 12 24  1  0  0  0  0
 12 25  1  0  0  0  0
 12 26  1  0  0  0  0
 13 27  1  0  0  0  0
 13 28  1  0  0  0  0
 13 29  1  0  0  0  0
 14 18  1  0  0  0  0
 15 30  1  0  0  0  0
 15 31  1  0  0  0  0
 15 32  1  0  0  0  0
 16 20  1  0  0  0  0
 16 33  1  0  0  0  0
 17 18  2  0  0  0  0
 17 34  1  0  0  0  0
 18 35  1  0  0  0  0
 19 21  1  0  0  0  0
 19 36  1  0  0  0  0
 20 21  2  0  0  0  0
 20 37  1  0  0  0  0
 21 38  1  0  0  0  0
M  END
> <Activity>
3.755

> <Mapped(file=504701.csv.activities,property=Cached(PUBCHEM_COMPOUND_CID))>
3.755

> <PUBCHEM_ATOM_DEF_STEREO_COUNT>
0

> <PUBCHEM_ATOM_UDEF_STEREO_COUNT>
0

> <PUBCHEM_BONDANNOTATIONS>
10  19  8
16  20  8
19  21  8
2  4  8
2  6  8
20  21  8
4  7  8
5  6  8
5  7  8
9  10  8
9  16  8

> <PUBCHEM_BOND_DEF_STEREO_COUNT>
1

> <PUBCHEM_BOND_UDEF_STEREO_COUNT>
0

> <PUBCHEM_CACTVS_COMPLEXITY>
471

> <PUBCHEM_CACTVS_HBOND_ACCEPTOR>
3

> <PUBCHEM_CACTVS_HBOND_DONOR>
1

> <PUBCHEM_CACTVS_ROTATABLE_BOND>
2

> <PUBCHEM_CACTVS_SUBSKEYS>
AAADceB7IAAAAAAAAAAAAAAAAAAAAWAAAAAwQAAAAAAAAACBwAAAHgAYAAAADAzBngQywJLIAACqA6R2RACSBAAhkAAY2KE4VNgIYDLA1dCUpAhgiABIyccIiICOgAAAAAAQAAAAAAAAACAAAAAAAAAAAA==

> <PUBCHEM_CACTVS_TAUTO_COUNT>
4

> <PUBCHEM_CACTVS_TPSA>
46.9

> <PUBCHEM_COMPONENT_COUNT>
1

> <PUBCHEM_COMPOUND_CANONICALIZED>
1

> <PUBCHEM_COMPOUND_CID>
5405772

> <PUBCHEM_COORDINATE_TYPE>
1
5
255

> <PUBCHEM_EXACT_MASS>
279.137162

> <PUBCHEM_HEAVY_ATOM_COUNT>
21

> <PUBCHEM_ISOTOPIC_ATOM_COUNT>
0

> <PUBCHEM_IUPAC_CAS_NAME>
(1Z)-1-[[(1,3,5-trimethyl-4-pyrazolyl)amino]methylidene]-2-naphthalenone

> <PUBCHEM_IUPAC_INCHI>
InChI=1S/C17H17N3O/c1-11-17(12(2)20(3)19-11)18-10-15-14-7-5-4-6-13(14)8-9-16(15)21/h4-10,18H,1-3H3/b15-10-

> <PUBCHEM_IUPAC_INCHIKEY>
ZEJGXBVOPGUWRS-GDNBJRDFSA-N

> <PUBCHEM_IUPAC_NAME>
(1Z)-1-[[(1,3,5-trimethylpyrazol-4-yl)amino]methylidene]naphthalen-2-one

> <PUBCHEM_IUPAC_OPENEYE_NAME>
(1Z)-1-[[(1,3,5-trimethylpyrazol-4-yl)amino]methylene]naphthalen-2-one

> <PUBCHEM_IUPAC_SYSTEMATIC_NAME>
(1Z)-1-[[(1,3,5-trimethylpyrazol-4-yl)amino]methylidene]naphthalen-2-one

> <PUBCHEM_IUPAC_TRADITIONAL_NAME>
(1Z)-1-[[(1,3,5-trimethylpyrazol-4-yl)amino]methylene]naphthalen-2-one

> <PUBCHEM_MOLECULAR_FORMULA>
C17H17N3O

> <PUBCHEM_MOLECULAR_WEIGHT>
279.33638

> <PUBCHEM_MONOISOTOPIC_WEIGHT>
279.137162

> <PUBCHEM_OPENEYE_CAN_SMILES>
CC1=C(C(=NN1C)C)NC=C2C(=O)C=CC3=CC=CC=C32

> <PUBCHEM_OPENEYE_ISO_SMILES>
CC1=C(C(=NN1C)C)N/C=C/2\C(=O)C=CC3=CC=CC=C32

> <PUBCHEM_TOTAL_CHARGE>
0

> <PUBCHEM_XLOGP3_AA>
2.8

$$$$
Written by BCL::WriteToMDL,5310335
MBcorina  10171218483D 1   1.00000     0.00000 
CORINA 3.49 0026  01.06.2011
 36 38  0  0  0  0  0  0  0  0999 V2000
    1.1884   -2.2480   -0.1157 O   0  0  0  1  0  1  0  0  0  0  0  0
   -0.0040    1.4010    0.1322 O   0  0  0  1  0  2  0  0  0  0  0  0
    0.0588   -4.1693   -0.2718 N   0  0  0  1  0  3  0  0  0  0  0  0
   -2.3071   -4.1891   -0.2698 N   0  0  0  1  0  2  0  0  0  0  0  0
   -3.5797   -2.2574   -0.1131 N   0  0  0  1  0  2  0  0  0  0  0  0
   -0.0079    0.0040   -0.0992 N   0  0  0  1  0  3  0  0  0  0  0  0
   -1.1421   -4.8240   -0.3255 C   0  0  0  1  0  3  0  0  0  0  0  0
    1.2315   -4.8688   -0.3334 C   0  0  0  1  0  3  0  0  0  0  0  0
    0.1169   -2.8233   -0.1629 C   0  0  0  1  0  3  0  0  0  0  0  0
    1.2323   -6.2139   -0.4477 C   0  0  0  1  0  3  0  0  0  0  0  0
   -1.1432   -2.0712   -0.1023 C   0  0  0  1  0  3  0  0  0  0  0  0
   -2.3966   -2.8577   -0.1662 C   0  0  0  1  0  3  0  0  0  0  0  0
   -1.1563   -6.2307   -0.4453 C   0  0  0  1  0  3  0  0  0  0  0  0
    0.0182   -6.9150   -0.5048 C   0  0  0  1  0  3  0  0  0  0  0  0
    2.5382   -6.9630   -0.5148 C   0  0  0  1  0  4  0  0  0  0  0  0
   -1.1586   -0.6954    0.0094 C   0  0  0  1  0  3  0  0  0  0  0  0
   -4.7238   -2.9990   -0.1641 C   0  0  0  1  0  3  0  0  0  0  0  0
   -5.7741   -2.7324    0.7199 C   0  0  0  1  0  3  0  0  0  0  0  0
   -4.8545   -4.0258   -1.1044 C   0  0  0  1  0  3  0  0  0  0  0  0
   -6.9273   -3.4860    0.6619 C   0  0  0  1  0  3  0  0  0  0  0  0
   -6.0141   -4.7705   -1.1499 C   0  0  0  1  0  3  0  0  0  0  0  0
   -7.0468   -4.5043   -0.2678 C   0  0  0  1  0  3  0  0  0  0  0  0
    2.1709   -4.3378   -0.2902 H   0  0  0  1  0  1  0  0  0  0  0  0
   -2.0958   -6.7615   -0.4893 H   0  0  0  1  0  1  0  0  0  0  0  0
    0.0161   -7.9911   -0.5963 H   0  0  0  1  0  1  0  0  0  0  0  0
    2.8558   -7.2306    0.4930 H   0  0  0  1  0  1  0  0  0  0  0  0
    2.4075   -7.8687   -1.1070 H   0  0  0  1  0  1  0  0  0  0  0  0
    3.2958   -6.3316   -0.9789 H   0  0  0  1  0  1  0  0  0  0  0  0
   -2.0905   -0.1782    0.1836 H   0  0  0  1  0  1  0  0  0  0  0  0
   -5.6820   -1.9386    1.4464 H   0  0  0  1  0  1  0  0  0  0  0  0
   -4.0494   -4.2347   -1.7934 H   0  0  0  1  0  1  0  0  0  0  0  0
    0.8156   -0.4507   -0.3357 H   0  0  0  1  0  1  0  0  0  0  0  0
   -7.7393   -3.2814    1.3439 H   0  0  0  1  0  1  0  0  0  0  0  0
   -6.1166   -5.5636   -1.8758 H   0  0  0  1  0  1  0  0  0  0  0  0
   -7.9523   -5.0916   -0.3079 H   0  0  0  1  0  1  0  0  0  0  0  0
    0.8646    1.8140    0.0311 H   0  0  0  1  0  1  0  0  0  0  0  0
  1  9  2  0  0  0  0
  2  6  1  0  0  0  0
  2 36  1  0  0  0  0
  3  7  1  0  0  0  0
  3  8  1  0  0  0  0
  3  9  1  0  0  0  0
  4  7  2  0  0  0  0
  4 12  1  0  0  0  0
  5 12  2  0  0  0  0
  5 17  1  0  0  0  0
  6 16  1  0  0  0  0
  6 32  1  0  0  0  0
  7 13  1  0  0  0  0
  8 10  2  0  0  0  0
  8 23  1  0  0  0  0
  9 11  1  0  0  0  0
 10 14  1  0  0  0  0
 10 15  1  0  0  0  0
 11 12  1  0  0  0  0
 11 16  2  0  0  0  0
 13 14  2  0  0  0  0
 13 24  1  0  0  0  0
 14 25  1  0  0  0  0
 15 26  1  0  0  0  0
 15 27  1  0  0  0  0
 15 28  1  0  0  0  0
 16 29  1  0  0  0  0
 17 18  2  0  0  0  0
 17 19  1  0  0  0  0
 18 20  1  0  0  0  0
 18 30  1  0  0  0  0
 19 21  2  0  0  0  0
 19 31  1  0  0  0  0
 20 22  2  0  0  0  0
 20 33  1  0  0  0  0
 21 22  1  0  0  0  0
 21 34  1  0  0  0  0
 22 35  1  0  0  0  0
M  END
> <Activity>
5.112

> <Mapped(file=504701.csv.activities,property=Cached(PUBCHEM_COMPOUND_CID))>
5.112

> <PUBCHEM_ATOM_DEF_STEREO_COUNT>
0

> <PUBCHEM_ATOM_UDEF_STEREO_COUNT>
0

> <PUBCHEM_BONDANNOTATIONS>
17  18  8
17  19  8
18  20  8
19  21  8
20  22  8
21  22  8

> <PUBCHEM_BOND_DEF_STEREO_COUNT>
1

> <PUBCHEM_BOND_UDEF_STEREO_COUNT>
0

> <PUBCHEM_CACTVS_COMPLEXITY>
622

> <PUBCHEM_CACTVS_HBOND_ACCEPTOR>
4

> <PUBCHEM_CACTVS_HBOND_DONOR>
2

> <PUBCHEM_CACTVS_ROTATABLE_BOND>
2

> <PUBCHEM_CACTVS_SUBSKEYS>
AAADccB7sAAAAAAAAAAAAAAAAAAAAAAAAAAwQIAAAAAAAACBAAAAHgAUCAAADAjBkAQzwINQAACoAid2dACCAAEgAgAJiIE4ZNgIICqA2ZGEIABghgCIyMcQAAAAAAAAAAAAAAAAAAAAAAAAAAAAAAAAAA==

> <PUBCHEM_CACTVS_TAUTO_COUNT>
7

> <PUBCHEM_CACTVS_TPSA>
77.3

> <PUBCHEM_COMPONENT_COUNT>
1

> <PUBCHEM_COMPOUND_CANONICALIZED>
1

> <PUBCHEM_COMPOUND_CID>
5310335

> <PUBCHEM_COORDINATE_TYPE>
1
5
255

> <PUBCHEM_EXACT_MASS>
294.111676

> <PUBCHEM_HEAVY_ATOM_COUNT>
22

> <PUBCHEM_ISOTOPIC_ATOM_COUNT>
0

> <PUBCHEM_IUPAC_CAS_NAME>
(3Z)-3-[(hydroxyamino)methylidene]-7-methyl-2-phenylimino-4-pyrido[1,2-a]pyrimidinone

> <PUBCHEM_IUPAC_INCHI>
InChI=1S/C16H14N4O2/c1-11-7-8-14-19-15(18-12-5-3-2-4-6-12)13(9-17-22)16(21)20(14)10-11/h2-10,17,22H,1H3/b13-9-,18-15?

> <PUBCHEM_IUPAC_INCHIKEY>
CGMVECJYXLGQTB-CRFANRBNSA-N

> <PUBCHEM_IUPAC_NAME>
(3Z)-3-[(hydroxyamino)methylidene]-7-methyl-2-phenyliminopyrido[1,2-a]pyrimidin-4-one

> <PUBCHEM_IUPAC_OPENEYE_NAME>
(3Z)-3-[(hydroxyamino)methylene]-7-methyl-2-phenylimino-pyrido[1,2-a]pyrimidin-4-one

> <PUBCHEM_IUPAC_SYSTEMATIC_NAME>
(3Z)-7-methyl-3-[(oxidanylamino)methylidene]-2-phenylimino-pyrido[1,2-a]pyrimidin-4-one

> <PUBCHEM_IUPAC_TRADITIONAL_NAME>
(3Z)-3-[(hydroxyamino)methylene]-7-methyl-2-phenylimino-pyrido[1,2-a]pyrimidin-4-one

> <PUBCHEM_MOLECULAR_FORMULA>
C16H14N4O2

> <PUBCHEM_MOLECULAR_WEIGHT>
294.30796

> <PUBCHEM_MONOISOTOPIC_WEIGHT>
294.111676

> <PUBCHEM_OPENEYE_CAN_SMILES>
CC1=CN2C(=NC(=NC3=CC=CC=C3)C(=CNO)C2=O)C=C1

> <PUBCHEM_OPENEYE_ISO_SMILES>
CC1=CN2C(=NC(=NC3=CC=CC=C3)/C(=C/NO)/C2=O)C=C1

> <PUBCHEM_TOTAL_CHARGE>
0

> <PUBCHEM_XLOGP3_AA>
2

$$$$
Written by BCL::WriteToMDL,2105000
MBcorina  10171218483D 1   1.00000     0.00000 
CORINA 3.49 0026  01.06.2011
 53 56  0  0  0  0  0  0  0  0999 V2000
   -0.0176    1.4478    0.0100 O   0  0  0  1  0  2  0  0  0  0  0  0
    1.3918    7.6740    0.0290 O   0  0  0  1  0  2  0  0  0  0  0  0
    0.0371   -4.5118   -1.5477 O   0  0  0  1  0  1  0  0  0  0  0  0
   -2.3442    0.2499    0.0258 O   0  0  0  1  0  1  0  0  0  0  0  0
    0.7460   11.9104   -0.5184 O   0  0  0  1  0  2  0  0  0  0  0  0
    2.2024    1.4280   -0.0113 O   0  0  0  1  0  1  0  0  0  0  0  0
   -1.6400   -1.8540    0.0078 N   0  0  0  1  0  3  0  0  0  0  0  0
   -2.1370   -4.2844   -1.2034 N   0  0  0  1  0  3  0  0  0  0  0  0
    0.7568   11.9046    0.6907 N   0  0  0  1  0  2  0  0  0  0  0  0
   -2.9476   -2.3643    0.0175 C   0  0  0  1  0  3  0  0  0  0  0  0
   -0.5272   -2.8152   -0.0142 C   0  0  0  1  0  4  0  0  0  0  0  0
   -3.1913   -3.5958   -0.5937 C   0  0  0  1  0  3  0  0  0  0  0  0
   -0.8588   -3.9288   -0.9743 C   0  0  0  1  0  3  0  0  0  0  0  0
   -1.4117   -0.5257    0.0127 C   0  0  0  1  0  3  0  0  0  0  0  0
   -3.9809   -1.6696    0.6191 C   0  0  0  1  0  3  0  0  0  0  0  0
   -4.4732   -4.1210   -0.5905 C   0  0  0  1  0  3  0  0  0  0  0  0
    0.0021   -0.0041    0.0020 C   0  0  0  1  0  4  0  0  0  0  0  0
   -5.2587   -2.2012    0.6159 C   0  0  0  1  0  3  0  0  0  0  0  0
   -5.5021   -3.4220    0.0144 C   0  0  0  1  0  3  0  0  0  0  0  0
    0.4000    9.8568    0.0492 C   0  0  0  1  0  3  0  0  0  0  0  0
    0.1447    8.3716    0.0442 C   0  0  0  1  0  4  0  0  0  0  0  0
    0.5313   10.6841   -1.0152 C   0  0  0  1  0  3  0  0  0  0  0  0
    0.5568   10.7094    1.1661 C   0  0  0  1  0  3  0  0  0  0  0  0
    1.3392    6.3180    0.0227 C   0  0  0  1  0  3  0  0  0  0  0  0
    1.2317    3.5494    0.0094 C   0  0  0  1  0  3  0  0  0  0  0  0
    1.1745    2.0758    0.0020 C   0  0  0  1  0  3  0  0  0  0  0  0
    2.5164    5.5788    0.0080 C   0  0  0  1  0  3  0  0  0  0  0  0
    0.1083    5.6721    0.0372 C   0  0  0  1  0  3  0  0  0  0  0  0
    2.4674    4.2029    0.0011 C   0  0  0  1  0  3  0  0  0  0  0  0
    0.0504    4.2966    0.0304 C   0  0  0  1  0  3  0  0  0  0  0  0
    0.4512   10.3015   -2.4706 C   0  0  0  1  0  4  0  0  0  0  0  0
    0.5038   10.3128    2.6190 C   0  0  0  1  0  4  0  0  0  0  0  0
    0.3831   -2.3118   -0.3398 H   0  0  0  1  0  1  0  0  0  0  0  0
   -0.3808   -3.2263    0.9846 H   0  0  0  1  0  1  0  0  0  0  0  0
   -2.3291   -5.0266   -1.7976 H   0  0  0  1  0  1  0  0  0  0  0  0
   -3.7915   -0.7162    1.0898 H   0  0  0  1  0  1  0  0  0  0  0  0
   -4.6689   -5.0740   -1.0595 H   0  0  0  1  0  1  0  0  0  0  0  0
    0.5123   -0.3556   -0.8948 H   0  0  0  1  0  1  0  0  0  0  0  0
    0.5293   -0.3651    0.8851 H   0  0  0  1  0  1  0  0  0  0  0  0
   -6.0678   -1.6611    1.0851 H   0  0  0  1  0  1  0  0  0  0  0  0
   -6.5013   -3.8319    0.0164 H   0  0  0  1  0  1  0  0  0  0  0  0
   -0.4315    8.1050   -0.8418 H   0  0  0  1  0  1  0  0  0  0  0  0
   -0.4148    8.0960    0.9381 H   0  0  0  1  0  1  0  0  0  0  0  0
    3.4706    6.0845    0.0012 H   0  0  0  1  0  1  0  0  0  0  0  0
   -0.8038    6.2501    0.0531 H   0  0  0  1  0  1  0  0  0  0  0  0
    3.3824    3.6293   -0.0148 H   0  0  0  1  0  1  0  0  0  0  0  0
   -0.9063    3.7955    0.0365 H   0  0  0  1  0  1  0  0  0  0  0  0
    0.5970   11.1880   -3.0879 H   0  0  0  1  0  1  0  0  0  0  0  0
    1.2264    9.5695   -2.6970 H   0  0  0  1  0  1  0  0  0  0  0  0
   -0.5279    9.8703   -2.6796 H   0  0  0  1  0  1  0  0  0  0  0  0
   -0.5219   10.3904    2.9796 H   0  0  0  1  0  1  0  0  0  0  0  0
    0.8505    9.2852    2.7281 H   0  0  0  1  0  1  0  0  0  0  0  0
    1.1444   10.9761    3.2002 H   0  0  0  1  0  1  0  0  0  0  0  0
  1 17  1  0  0  0  0
  1 26  1  0  0  0  0
  2 21  1  0  0  0  0
  2 24  1  0  0  0  0
  3 13  2  0  0  0  0
  4 14  2  0  0  0  0
  5  9  1  0  0  0  0
  5 22  1  0  0  0  0
  6 26  2  0  0  0  0
  7 10  1  0  0  0  0
  7 11  1  0  0  0  0
  7 14  1  0  0  0  0
  8 12  1  0  0  0  0
  8 13  1  0  0  0  0
  8 35  1  0  0  0  0
  9 23  2  0  0  0  0
 10 12  1  0  0  0  0
 10 15  2  0  0  0  0
 11 13  1  0  0  0  0
 11 33  1  0  0  0  0
 11 34  1  0  0  0  0
 12 16  2  0  0  0  0
 14 17  1  0  0  0  0
 15 18  1  0  0  0  0
 15 36  1  0  0  0  0
 16 19  1  0  0  0  0
 16 37  1  0  0  0  0
 17 38  1  0  0  0  0
 17 39  1  0  0  0  0
 18 19  2  0  0  0  0
 18 40  1  0  0  0  0
 19 41  1  0  0  0  0
 20 21  1  0  0  0  0
 20 22  2  0  0  0  0
 20 23  1  0  0  0  0
 21 42  1  0  0  0  0
 21 43  1  0  0  0  0
 22 31  1  0  0  0  0
 23 32  1  0  0  0  0
 24 27  2  0  0  0  0
 24 28  1  0  0  0  0
 25 26  1  0  0  0  0
 25 29  2  0  0  0  0
 25 30  1  0  0  0  0
 27 29  1  0  0  0  0
 27 44  1  0  0  0  0
 28 30  2  0  0  0  0
 28 45  1  0  0  0  0
 29 46  1  0  0  0  0
 30 47  1  0  0  0  0
 31 48  1  0  0  0  0
 31 49  1  0  0  0  0
 31 50  1  0  0  0  0
 32 51  1  0  0  0  0
 32 52  1  0  0  0  0
 32 53  1  0  0  0  0
M  END
> <Activity>
0.86093

> <Mapped(file=504699.csv.activities,property=Cached(PUBCHEM_COMPOUND_CID))>
0.86093

> <PUBCHEM_ATOM_DEF_STEREO_COUNT>
0

> <PUBCHEM_ATOM_UDEF_STEREO_COUNT>
0

> <PUBCHEM_BONDANNOTATIONS>
10  12  8
10  15  8
12  16  8
15  18  8
16  19  8
18  19  8
20  22  8
20  23  8
24  27  8
24  28  8
25  29  8
25  30  8
27  29  8
28  30  8
5  22  8
5  9  8
9  23  8

> <PUBCHEM_BOND_DEF_STEREO_COUNT>
0

> <PUBCHEM_BOND_UDEF_STEREO_COUNT>
0

> <PUBCHEM_CACTVS_COMPLEXITY>
695

> <PUBCHEM_CACTVS_HBOND_ACCEPTOR>
7

> <PUBCHEM_CACTVS_HBOND_DONOR>
1

> <PUBCHEM_CACTVS_ROTATABLE_BOND>
7

> <PUBCHEM_CACTVS_SUBSKEYS>
AAADceB7OAAAAAAAAAAAAAAAAAAAAWAAAAA8YIAAAAAAAACx0AAAHgAUAAAADAzhngYyzpPQBACpA6XyWgKCCAAlIgAomCH+fNoOZz7Etb+XOajn9hnY6ceY7CzOIAAAAAAAACBAAAAAAAAAQAAAAAAAAA==

> <PUBCHEM_CACTVS_TAUTO_COUNT>
3

> <PUBCHEM_CACTVS_TPSA>
111

> <PUBCHEM_COMPONENT_COUNT>
1

> <PUBCHEM_COMPOUND_CANONICALIZED>
1

> <PUBCHEM_COMPOUND_CID>
2105000

> <PUBCHEM_COORDINATE_TYPE>
1
5
255

> <PUBCHEM_EXACT_MASS>
435.143035

> <PUBCHEM_HEAVY_ATOM_COUNT>
32

> <PUBCHEM_ISOTOPIC_ATOM_COUNT>
0

> <PUBCHEM_IUPAC_CAS_NAME>
4-[(3,5-dimethyl-4-isoxazolyl)methoxy]benzoic acid [2-oxo-2-(3-oxo-2,4-dihydroquinoxalin-1-yl)ethyl] ester

> <PUBCHEM_IUPAC_INCHI>
InChI=1S/C23H21N3O6/c1-14-18(15(2)32-25-14)12-30-17-9-7-16(8-10-17)23(29)31-13-22(28)26-11-21(27)24-19-5-3-4-6-20(19)26/h3-10H,11-13H2,1-2H3,(H,24,27)

> <PUBCHEM_IUPAC_INCHIKEY>
HTWFLPBAXWPSKY-UHFFFAOYSA-N

> <PUBCHEM_IUPAC_NAME>
[2-oxo-2-(3-oxo-2,4-dihydroquinoxalin-1-yl)ethyl] 4-[(3,5-dimethyl-1,2-oxazol-4-yl)methoxy]benzoate

> <PUBCHEM_IUPAC_OPENEYE_NAME>
[2-oxo-2-(3-oxo-2,4-dihydroquinoxalin-1-yl)ethyl] 4-[(3,5-dimethylisoxazol-4-yl)methoxy]benzoate

> <PUBCHEM_IUPAC_SYSTEMATIC_NAME>
[2-oxidanylidene-2-(3-oxidanylidene-2,4-dihydroquinoxalin-1-yl)ethyl] 4-[(3,5-dimethyl-1,2-oxazol-4-yl)methoxy]benzoate

> <PUBCHEM_IUPAC_TRADITIONAL_NAME>
4-[(3,5-dimethylisoxazol-4-yl)methoxy]benzoic acid [2-keto-2-(3-keto-2,4-dihydroquinoxalin-1-yl)ethyl] ester

> <PUBCHEM_MOLECULAR_FORMULA>
C23H21N3O6

> <PUBCHEM_MOLECULAR_WEIGHT>
435.42934

> <PUBCHEM_MONOISOTOPIC_WEIGHT>
435.143035

> <PUBCHEM_OPENEYE_CAN_SMILES>
CC1=C(C(=NO1)C)COC2=CC=C(C=C2)C(=O)OCC(=O)N3CC(=O)NC4=CC=CC=C43

> <PUBCHEM_OPENEYE_ISO_SMILES>
CC1=C(C(=NO1)C)COC2=CC=C(C=C2)C(=O)OCC(=O)N3CC(=O)NC4=CC=CC=C43

> <PUBCHEM_TOTAL_CHARGE>
0

> <PUBCHEM_XLOGP3_AA>
2.6

$$$$
Written by BCL::WriteToMDL,2772726
MBcorina  10171218483D 1   1.00000     0.00000 
CORINA 3.49 0026  01.06.2011
 45 47  0  0  0  0  0  0  0  0999 V2000
   -0.0218    1.7577    0.0117 S   0  0  0  1  0  2  0  0  0  0  0  0
    3.3912    3.8760   -0.0095 O   0  0  0  1  0  2  0  0  0  0  0  0
   -5.0229    0.4510    2.6750 O   0  0  0  1  0  2  0  0  0  0  0  0
   -4.9906    0.4403    0.4654 O   0  0  0  1  0  1  0  0  0  0  0  0
   -1.1054   -0.8044    0.0083 N   0  0  0  1  0  3  0  0  0  0  0  0
    1.0847   -0.7425   -0.0131 N   0  0  0  1  0  2  0  0  0  0  0  0
   -0.6631   -2.1172   -0.0038 C   0  0  0  1  0  3  0  0  0  0  0  0
   -2.5004   -0.3575    0.0302 C   0  0  0  1  0  4  0  0  0  0  0  0
    0.0021   -0.0041    0.0020 C   0  0  0  1  0  3  0  0  0  0  0  0
    0.7404   -2.0569   -0.0230 C   0  0  0  1  0  3  0  0  0  0  0  0
   -2.9654   -0.2083    1.4801 C   0  0  0  1  0  4  0  0  0  0  0  0
   -1.3030   -3.3468   -0.0005 C   0  0  0  1  0  3  0  0  0  0  0  0
    1.4794   -3.2421   -0.0394 C   0  0  0  1  0  3  0  0  0  0  0  0
    1.7562    2.0963   -0.0035 C   0  0  0  1  0  4  0  0  0  0  0  0
   -0.5585   -4.5088   -0.0161 C   0  0  0  1  0  3  0  0  0  0  0  0
    0.8268   -4.4550   -0.0457 C   0  0  0  1  0  3  0  0  0  0  0  0
    1.9874    3.6087    0.0025 C   0  0  0  1  0  4  0  0  0  0  0  0
   -4.4004    0.2514    1.5026 C   0  0  0  1  0  3  0  0  0  0  0  0
    3.7708    5.1809   -0.0061 C   0  0  0  1  0  3  0  0  0  0  0  0
    5.1181    5.5127   -0.0172 C   0  0  0  1  0  3  0  0  0  0  0  0
    5.5013    6.8396   -0.0137 C   0  0  0  1  0  3  0  0  0  0  0  0
    2.8121    6.1833    0.0027 C   0  0  0  1  0  3  0  0  0  0  0  0
    4.5437    7.8371    0.0009 C   0  0  0  1  0  3  0  0  0  0  0  0
    3.2007    7.5092    0.0062 C   0  0  0  1  0  3  0  0  0  0  0  0
    6.9644    7.2007   -0.0252 C   0  0  0  1  0  4  0  0  0  0  0  0
   -2.5822    0.6032   -0.4783 H   0  0  0  1  0  1  0  0  0  0  0  0
   -3.1252   -1.0919   -0.4780 H   0  0  0  1  0  1  0  0  0  0  0  0
   -2.8836   -1.1689    1.9886 H   0  0  0  1  0  1  0  0  0  0  0  0
   -2.3406    0.5262    1.9883 H   0  0  0  1  0  1  0  0  0  0  0  0
   -2.3818   -3.3954    0.0147 H   0  0  0  1  0  1  0  0  0  0  0  0
    2.5588   -3.2076   -0.0474 H   0  0  0  1  0  1  0  0  0  0  0  0
    2.2177    1.6547    0.8798 H   0  0  0  1  0  1  0  0  0  0  0  0
    2.2007    1.6643   -0.9001 H   0  0  0  1  0  1  0  0  0  0  0  0
   -1.0582   -5.4663   -0.0131 H   0  0  0  1  0  1  0  0  0  0  0  0
    1.3985   -5.3712   -0.0584 H   0  0  0  1  0  1  0  0  0  0  0  0
    1.5430    4.0407    0.8991 H   0  0  0  1  0  1  0  0  0  0  0  0
    1.5260    4.0503   -0.8808 H   0  0  0  1  0  1  0  0  0  0  0  0
    5.8664    4.7340   -0.0282 H   0  0  0  1  0  1  0  0  0  0  0  0
    1.7628    5.9276    0.0065 H   0  0  0  1  0  1  0  0  0  0  0  0
    4.8454    8.8741    0.0036 H   0  0  0  1  0  1  0  0  0  0  0  0
    2.4546    8.2900    0.0127 H   0  0  0  1  0  1  0  0  0  0  0  0
    7.3077    7.2932   -1.0556 H   0  0  0  1  0  1  0  0  0  0  0  0
    7.1087    8.1491    0.4923 H   0  0  0  1  0  1  0  0  0  0  0  0
    7.5351    6.4210    0.4793 H   0  0  0  1  0  1  0  0  0  0  0  0
   -5.9432    0.7458    2.6388 H   0  0  0  1  0  1  0  0  0  0  0  0
  1  9  1  0  0  0  0
  1 14  1  0  0  0  0
  2 17  1  0  0  0  0
  2 19  1  0  0  0  0
  3 18  1  0  0  0  0
  3 45  1  0  0  0  0
  4 18  2  0  0  0  0
  5  7  1  0  0  0  0
  5  8  1  0  0  0  0
  5  9  1  0  0  0  0
  6  9  2  0  0  0  0
  6 10  1  0  0  0  0
  7 10  1  0  0  0  0
  7 12  2  0  0  0  0
  8 11  1  0  0  0  0
  8 26  1  0  0  0  0
  8 27  1  0  0  0  0
 10 13  2  0  0  0  0
 11 18  1  0  0  0  0
 11 28  1  0  0  0  0
 11 29  1  0  0  0  0
 12 15  1  0  0  0  0
 12 30  1  0  0  0  0
 13 16  1  0  0  0  0
 13 31  1  0  0  0  0
 14 17  1  0  0  0  0
 14 32  1  0  0  0  0
 14 33  1  0  0  0  0
 15 16  2  0  0  0  0
 15 34  1  0  0  0  0
 16 35  1  0  0  0  0
 17 36  1  0  0  0  0
 17 37  1  0  0  0  0
 19 20  1  0  0  0  0
 19 22  2  0  0  0  0
 20 21  2  0  0  0  0
 20 38  1  0  0  0  0
 21 23  1  0  0  0  0
 21 25  1  0  0  0  0
 22 24  1  0  0  0  0
 22 39  1  0  0  0  0
 23 24  2  0  0  0  0
 23 40  1  0  0  0  0
 24 41  1  0  0  0  0
 25 42  1  0  0  0  0
 25 43  1  0  0  0  0
 25 44  1  0  0  0  0
M  END
> <Activity>
1.566

> <Mapped(file=504701.csv.activities,property=Cached(PUBCHEM_COMPOUND_CID))>
1.566

> <PUBCHEM_ATOM_DEF_STEREO_COUNT>
0

> <PUBCHEM_ATOM_UDEF_STEREO_COUNT>
0

> <PUBCHEM_BONDANNOTATIONS>
10  13  8
12  15  8
13  16  8
15  16  8
19  20  8
19  22  8
20  21  8
21  23  8
22  24  8
23  24  8
5  7  8
5  9  8
6  10  8
6  9  8
7  10  8
7  12  8

> <PUBCHEM_BOND_DEF_STEREO_COUNT>
0

> <PUBCHEM_BOND_UDEF_STEREO_COUNT>
0

> <PUBCHEM_CACTVS_COMPLEXITY>
437

> <PUBCHEM_CACTVS_HBOND_ACCEPTOR>
4

> <PUBCHEM_CACTVS_HBOND_DONOR>
1

> <PUBCHEM_CACTVS_ROTATABLE_BOND>
8

> <PUBCHEM_CACTVS_SUBSKEYS>
AAADceB7MABAAAAAAAAAAAAAAAAAAWAAAAAwYAAAAAAAAFgB9AAAHgQACAAADAzl3gaz3rcMFgioAyTybACC2C1hMrAJ2CE+fJiMbqrEuZuWeCjuwBPI6CeQwBAOAAABAAAAACAAAAIAAAAAQAAAAAAAAA==

> <PUBCHEM_CACTVS_TAUTO_COUNT>
1

> <PUBCHEM_CACTVS_TPSA>
89.6

> <PUBCHEM_COMPONENT_COUNT>
1

> <PUBCHEM_COMPOUND_CANONICALIZED>
1

> <PUBCHEM_COMPOUND_CID>
2772726

> <PUBCHEM_COORDINATE_TYPE>
1
5
255

> <PUBCHEM_EXACT_MASS>
356.119464

> <PUBCHEM_HEAVY_ATOM_COUNT>
25

> <PUBCHEM_ISOTOPIC_ATOM_COUNT>
0

> <PUBCHEM_IUPAC_CAS_NAME>
3-[2-[2-(3-methylphenoxy)ethylthio]-1-benzimidazolyl]propanoic acid

> <PUBCHEM_IUPAC_INCHI>
InChI=1S/C19H20N2O3S/c1-14-5-4-6-15(13-14)24-11-12-25-19-20-16-7-2-3-8-17(16)21(19)10-9-18(22)23/h2-8,13H,9-12H2,1H3,(H,22,23)

> <PUBCHEM_IUPAC_INCHIKEY>
FOCAKYCVXWBREO-UHFFFAOYSA-N

> <PUBCHEM_IUPAC_NAME>
3-[2-[2-(3-methylphenoxy)ethylsulfanyl]benzimidazol-1-yl]propanoic acid

> <PUBCHEM_IUPAC_OPENEYE_NAME>
3-[2-[2-(3-methylphenoxy)ethylsulfanyl]benzimidazol-1-yl]propanoic acid

> <PUBCHEM_IUPAC_SYSTEMATIC_NAME>
3-[2-[2-(3-methylphenoxy)ethylsulfanyl]benzimidazol-1-yl]propanoic acid

> <PUBCHEM_IUPAC_TRADITIONAL_NAME>
3-[2-[2-(3-methylphenoxy)ethylthio]benzimidazol-1-yl]propionic acid

> <PUBCHEM_MOLECULAR_FORMULA>
C19H20N2O3S

> <PUBCHEM_MOLECULAR_WEIGHT>
356.4387

> <PUBCHEM_MONOISOTOPIC_WEIGHT>
356.119464

> <PUBCHEM_OPENEYE_CAN_SMILES>
CC1=CC(=CC=C1)OCCSC2=NC3=CC=CC=C3N2CCC(=O)O

> <PUBCHEM_OPENEYE_ISO_SMILES>
CC1=CC(=CC=C1)OCCSC2=NC3=CC=CC=C3N2CCC(=O)O

> <PUBCHEM_TOTAL_CHARGE>
0

> <PUBCHEM_XLOGP3_AA>
3.7

$$$$
Written by BCL::WriteToMDL,627227
MBcorina  10171218483D 1   1.00000     0.00000 
CORINA 3.49 0026  01.06.2011
 30 32  0  0  0  0  0  0  0  0999 V2000
    0.1022   -4.5183   -0.0217 Cl  0  0  0  1  0  1  0  0  0  0  0  0
    1.0606    3.3063    0.0097 O   0  0  0  1  0  1  0  0  0  0  0  0
    4.7074    1.7566   -0.0347 O   0  5  0  1  0  1  0  0  0  0  0  0
    3.5319    3.5083   -0.0137 O   0  0  0  1  0  1  0  0  0  0  0  0
   -0.0166    1.3761    0.0096 N   0  0  0  1  0  3  0  0  0  0  0  0
    3.6140    2.2931   -0.0210 N   0  3  0  1  0  3  0  0  0  0  0  0
    2.4781    0.1018   -0.0215 C   0  0  0  1  0  3  0  0  0  0  0  0
    1.2330   -0.6828   -0.0134 C   0  0  0  1  0  3  0  0  0  0  0  0
    0.0021   -0.0041    0.0020 C   0  0  0  1  0  3  0  0  0  0  0  0
    2.3849    1.4682   -0.0133 C   0  0  0  1  0  3  0  0  0  0  0  0
    3.7973   -0.5685   -0.0373 C   0  0  0  1  0  3  0  0  0  0  0  0
    1.2596   -2.0790   -0.0206 C   0  0  0  1  0  3  0  0  0  0  0  0
    1.1227    2.0885    0.0026 C   0  0  0  1  0  3  0  0  0  0  0  0
   -1.1822   -0.7336    0.0098 C   0  0  0  1  0  3  0  0  0  0  0  0
    0.0752   -2.7825   -0.0127 C   0  0  0  1  0  3  0  0  0  0  0  0
    4.6634   -0.4365    1.0490 C   0  0  0  1  0  3  0  0  0  0  0  0
    4.1781   -1.3402   -1.1359 C   0  0  0  1  0  3  0  0  0  0  0  0
   -1.1407   -2.1108    0.0025 C   0  0  0  1  0  3  0  0  0  0  0  0
    5.8916   -1.0644    1.0282 C   0  0  0  1  0  3  0  0  0  0  0  0
    5.4090   -1.9630   -1.1442 C   0  0  0  1  0  3  0  0  0  0  0  0
    6.2656   -1.8234   -0.0665 C   0  0  0  1  0  3  0  0  0  0  0  0
   -0.8682    1.8405    0.0161 H   0  0  0  1  0  1  0  0  0  0  0  0
    2.2032   -2.6042   -0.0331 H   0  0  0  1  0  1  0  0  0  0  0  0
   -2.1329   -0.2213    0.0220 H   0  0  0  1  0  1  0  0  0  0  0  0
    4.3730    0.1563    1.9038 H   0  0  0  1  0  1  0  0  0  0  0  0
    3.5104   -1.4499   -1.9777 H   0  0  0  1  0  1  0  0  0  0  0  0
   -2.0625   -2.6736    0.0090 H   0  0  0  1  0  1  0  0  0  0  0  0
    6.5629   -0.9630    1.8682 H   0  0  0  1  0  1  0  0  0  0  0  0
    5.7050   -2.5604   -1.9938 H   0  0  0  1  0  1  0  0  0  0  0  0
    7.2283   -2.3127   -0.0780 H   0  0  0  1  0  1  0  0  0  0  0  0
  1 15  1  0  0  0  0
  2 13  2  0  0  0  0
  3  6  1  0  0  0  0
  4  6  2  0  0  0  0
  5  9  1  0  0  0  0
  5 13  1  0  0  0  0
  5 22  1  0  0  0  0
  6 10  1  0  0  0  0
  7  8  1  0  0  0  0
  7 10  2  0  0  0  0
  7 11  1  0  0  0  0
  8  9  2  0  0  0  0
  8 12  1  0  0  0  0
  9 14  1  0  0  0  0
 10 13  1  0  0  0  0
 11 16  2  0  0  0  0
 11 17  1  0  0  0  0
 12 15  2  0  0  0  0
 12 23  1  0  0  0  0
 14 18  2  0  0  0  0
 14 24  1  0  0  0  0
 15 18  1  0  0  0  0
 16 19  1  0  0  0  0
 16 25  1  0  0  0  0
 17 20  2  0  0  0  0
 17 26  1  0  0  0  0
 18 27  1  0  0  0  0
 19 21  2  0  0  0  0
 19 28  1  0  0  0  0
 20 21  1  0  0  0  0
 20 29  1  0  0  0  0
 21 30  1  0  0  0  0
M  END
> <Activity>
0.915

> <Mapped(file=504701.csv.activities,property=Cached(PUBCHEM_COMPOUND_CID))>
0.915

> <PUBCHEM_ATOM_DEF_STEREO_COUNT>
0

> <PUBCHEM_ATOM_UDEF_STEREO_COUNT>
0

> <PUBCHEM_BONDANNOTATIONS>
10  13  8
11  16  8
11  17  8
12  15  8
14  18  8
15  18  8
16  19  8
17  20  8
19  21  8
20  21  8
5  13  8
5  9  8
7  10  8
7  8  8
8  12  8
8  9  8
9  14  8

> <PUBCHEM_BOND_DEF_STEREO_COUNT>
0

> <PUBCHEM_BOND_UDEF_STEREO_COUNT>
0

> <PUBCHEM_CACTVS_COMPLEXITY>
480

> <PUBCHEM_CACTVS_HBOND_ACCEPTOR>
3

> <PUBCHEM_CACTVS_HBOND_DONOR>
1

> <PUBCHEM_CACTVS_ROTATABLE_BOND>
1

> <PUBCHEM_CACTVS_SUBSKEYS>
AAADccBzMAAEAAAAAAAAAAAAAAAAAAAAAAAwYIAAAAAAAACBQAAAHgIUAAAADAqBmCAwwILQQACJAiVSUwCCAAAhBwAoiACAZsgIYCLBk5GUIAhglADIyQcQgMAOAABAIAACAAAAAIBAAAQAAAAAAAAAAA==

> <PUBCHEM_CACTVS_TAUTO_COUNT>
2

> <PUBCHEM_CACTVS_TPSA>
74.9

> <PUBCHEM_COMPONENT_COUNT>
1

> <PUBCHEM_COMPOUND_CANONICALIZED>
1

> <PUBCHEM_COMPOUND_CID>
627227

> <PUBCHEM_COORDINATE_TYPE>
1
5
255

> <PUBCHEM_EXACT_MASS>
300.03017

> <PUBCHEM_HEAVY_ATOM_COUNT>
21

> <PUBCHEM_ISOTOPIC_ATOM_COUNT>
0

> <PUBCHEM_IUPAC_CAS_NAME>
6-chloro-3-nitro-4-phenyl-1H-quinolin-2-one

> <PUBCHEM_IUPAC_INCHI>
InChI=1S/C15H9ClN2O3/c16-10-6-7-12-11(8-10)13(9-4-2-1-3-5-9)14(18(20)21)15(19)17-12/h1-8H,(H,17,19)

> <PUBCHEM_IUPAC_INCHIKEY>
XLJMQSLOEBFAKA-UHFFFAOYSA-N

> <PUBCHEM_IUPAC_NAME>
6-chloro-3-nitro-4-phenyl-1H-quinolin-2-one

> <PUBCHEM_IUPAC_OPENEYE_NAME>
6-chloro-3-nitro-4-phenyl-1H-quinolin-2-one

> <PUBCHEM_IUPAC_SYSTEMATIC_NAME>
6-chloranyl-3-nitro-4-phenyl-1H-quinolin-2-one

> <PUBCHEM_IUPAC_TRADITIONAL_NAME>
6-chloro-3-nitro-4-phenyl-carbostyril

> <PUBCHEM_MOLECULAR_FORMULA>
C15H9ClN2O3

> <PUBCHEM_MOLECULAR_WEIGHT>
300.69656

> <PUBCHEM_MONOISOTOPIC_WEIGHT>
300.03017

> <PUBCHEM_OPENEYE_CAN_SMILES>
C1=CC=C(C=C1)C2=C(C(=O)NC3=C2C=C(C=C3)Cl)[N+](=O)[O-]

> <PUBCHEM_OPENEYE_ISO_SMILES>
C1=CC=C(C=C1)C2=C(C(=O)NC3=C2C=C(C=C3)Cl)[N+](=O)[O-]

> <PUBCHEM_TOTAL_CHARGE>
0

> <PUBCHEM_XLOGP3_AA>
3.2

$$$$
Written by BCL::WriteToMDL,4360235
MBcorina  10171218483D 1   1.00000     0.00000 
CORINA 3.49 0026  01.06.2011
 39 42  0  0  0  0  0  0  0  0999 V2000
   -0.0218    1.7539    0.0117 S   0  0  0  1  0  2  0  0  0  0  0  0
   -5.3823   -0.7483    0.0622 O   0  0  0  1  0  1  0  0  0  0  0  0
    1.6742   -1.7855   -0.0235 N   0  0  0  1  0  3  0  0  0  0  0  0
   -3.3115   -1.5819    0.0269 N   0  0  0  1  0  3  0  0  0  0  0  0
   -2.4915   -0.4466    0.0239 N   0  0  0  1  0  3  0  0  0  0  0  0
   -3.0270   -3.9144    0.0134 N   0  0  0  1  0  2  0  0  0  0  0  0
    1.3064   -0.4345   -0.0127 C   0  0  0  1  0  3  0  0  0  0  0  0
    0.0021   -0.0041    0.0020 C   0  0  0  1  0  3  0  0  0  0  0  0
   -1.1768   -0.8687    0.0091 C   0  0  0  1  0  3  0  0  0  0  0  0
    1.8940   -2.5597    1.0798 C   0  0  0  1  0  3  0  0  0  0  0  0
    1.8671   -2.5494   -1.1390 C   0  0  0  1  0  3  0  0  0  0  0  0
   -2.5027   -2.6918    0.0141 C   0  0  0  1  0  3  0  0  0  0  0  0
   -1.1692   -2.2494    0.0029 C   0  0  0  1  0  3  0  0  0  0  0  0
    2.2179    0.6041   -0.0159 C   0  0  0  1  0  3  0  0  0  0  0  0
    2.2105   -3.7924   -0.7442 C   0  0  0  1  0  3  0  0  0  0  0  0
    2.2276   -3.7989    0.6652 C   0  0  0  1  0  3  0  0  0  0  0  0
    1.7836   -2.1073    2.5131 C   0  0  0  1  0  4  0  0  0  0  0  0
    1.7205   -2.0840   -2.5649 C   0  0  0  1  0  4  0  0  0  0  0  0
   -4.6529   -1.7263    0.0445 C   0  0  0  1  0  3  0  0  0  0  0  0
    1.6823    1.8272   -0.0042 C   0  0  0  1  0  3  0  0  0  0  0  0
   -4.3399   -4.1025    0.0219 C   0  0  0  1  0  3  0  0  0  0  0  0
   -5.1949   -3.0222    0.0425 C   0  0  0  1  0  3  0  0  0  0  0  0
   -4.8982   -5.5023    0.0204 C   0  0  0  1  0  4  0  0  0  0  0  0
   -2.7941    0.4750    0.0307 H   0  0  0  1  0  1  0  0  0  0  0  0
   -0.2919   -2.8791   -0.0089 H   0  0  0  1  0  1  0  0  0  0  0  0
    3.2851    0.4387   -0.0266 H   0  0  0  1  0  1  0  0  0  0  0  0
    2.4623   -4.6426    1.2973 H   0  0  0  1  0  1  0  0  0  0  0  0
    2.4297   -4.6300   -1.3897 H   0  0  0  1  0  1  0  0  0  0  0  0
    0.7653   -2.2675    2.8672 H   0  0  0  1  0  1  0  0  0  0  0  0
    2.4769   -2.6799    3.1292 H   0  0  0  1  0  1  0  0  0  0  0  0
    2.6766   -1.7016   -2.9223 H   0  0  0  1  0  1  0  0  0  0  0  0
    1.4073   -2.9204   -3.1897 H   0  0  0  1  0  1  0  0  0  0  0  0
    0.9717   -1.2935   -2.6139 H   0  0  0  1  0  1  0  0  0  0  0  0
    2.0289   -1.0474    2.5794 H   0  0  0  1  0  1  0  0  0  0  0  0
    2.2537    2.7436   -0.0051 H   0  0  0  1  0  1  0  0  0  0  0  0
   -6.2647   -3.1694    0.0566 H   0  0  0  1  0  1  0  0  0  0  0  0
   -4.0782   -6.2205    0.0118 H   0  0  0  1  0  1  0  0  0  0  0  0
   -5.5037   -5.6529    0.9141 H   0  0  0  1  0  1  0  0  0  0  0  0
   -5.5163   -5.6460   -0.8658 H   0  0  0  1  0  1  0  0  0  0  0  0
  1  8  1  0  0  0  0
  1 20  1  0  0  0  0
  2 19  2  0  0  0  0
  3  7  1  0  0  0  0
  3 10  1  0  0  0  0
  3 11  1  0  0  0  0
  4  5  1  0  0  0  0
  4 12  1  0  0  0  0
  4 19  1  0  0  0  0
  5  9  1  0  0  0  0
  5 24  1  0  0  0  0
  6 12  2  0  0  0  0
  6 21  1  0  0  0  0
  7  8  2  0  0  0  0
  7 14  1  0  0  0  0
  8  9  1  0  0  0  0
  9 13  2  0  0  0  0
 10 16  2  0  0  0  0
 10 17  1  0  0  0  0
 11 15  2  0  0  0  0
 11 18  1  0  0  0  0
 12 13  1  0  0  0  0
 13 25  1  0  0  0  0
 14 20  2  0  0  0  0
 14 26  1  0  0  0  0
 15 16  1  0  0  0  0
 15 28  1  0  0  0  0
 16 27  1  0  0  0  0
 17 29  1  0  0  0  0
 17 30  1  0  0  0  0
 17 34  1  0  0  0  0
 18 31  1  0  0  0  0
 18 32  1  0  0  0  0
 18 33  1  0  0  0  0
 19 22  1  0  0  0  0
 20 35  1  0  0  0  0
 21 22  2  0  0  0  0
 21 23  1  0  0  0  0
 22 36  1  0  0  0  0
 23 37  1  0  0  0  0
 23 38  1  0  0  0  0
 23 39  1  0  0  0  0
M  END
> <Activity>
4.645

> <Mapped(file=504701.csv.activities,property=Cached(PUBCHEM_COMPOUND_CID))>
4.645

> <PUBCHEM_ATOM_DEF_STEREO_COUNT>
0

> <PUBCHEM_ATOM_UDEF_STEREO_COUNT>
0

> <PUBCHEM_BONDANNOTATIONS>
1  20  8
1  8  8
10  16  8
11  15  8
12  13  8
14  20  8
15  16  8
19  22  8
21  22  8
3  10  8
3  11  8
4  12  8
4  19  8
4  5  8
5  9  8
6  12  8
6  21  8
7  14  8
7  8  8
9  13  8

> <PUBCHEM_BOND_DEF_STEREO_COUNT>
0

> <PUBCHEM_BOND_UDEF_STEREO_COUNT>
0

> <PUBCHEM_CACTVS_COMPLEXITY>
616

> <PUBCHEM_CACTVS_HBOND_ACCEPTOR>
4

> <PUBCHEM_CACTVS_HBOND_DONOR>
1

> <PUBCHEM_CACTVS_ROTATABLE_BOND>
2

> <PUBCHEM_CACTVS_SUBSKEYS>
AAADceB7oABAAAAAAAAAAAAAAAAAAWJEAAAgAAAAAAAAAEAB4AAAHgQYAAAACAiF1gCzwZNuEAisASdydACDgKEhCjBbuDwwZNgIIOLg2ZGEAAxghADoyUcQAAAAAAAAAAAAAAAAAAAAAAAAAAAAAAAAAA==

> <PUBCHEM_CACTVS_TAUTO_COUNT>
11

> <PUBCHEM_CACTVS_TPSA>
77.9

> <PUBCHEM_COMPONENT_COUNT>
1

> <PUBCHEM_COMPOUND_CANONICALIZED>
1

> <PUBCHEM_COMPOUND_CID>
4360235

> <PUBCHEM_COORDINATE_TYPE>
1
5
255

> <PUBCHEM_EXACT_MASS>
324.104482

> <PUBCHEM_HEAVY_ATOM_COUNT>
23

> <PUBCHEM_ISOTOPIC_ATOM_COUNT>
0

> <PUBCHEM_IUPAC_CAS_NAME>
2-[3-(2,5-dimethyl-1-pyrrolyl)-2-thiophenyl]-5-methyl-1H-pyrazolo[1,5-a]pyrimidin-7-one

> <PUBCHEM_IUPAC_INCHI>
InChI=1S/C17H16N4OS/c1-10-8-16(22)21-15(18-10)9-13(19-21)17-14(6-7-23-17)20-11(2)4-5-12(20)3/h4-9,19H,1-3H3

> <PUBCHEM_IUPAC_INCHIKEY>
BGSMGRPUSYWWHJ-UHFFFAOYSA-N

> <PUBCHEM_IUPAC_NAME>
2-[3-(2,5-dimethylpyrrol-1-yl)thiophen-2-yl]-5-methyl-1H-pyrazolo[1,5-a]pyrimidin-7-one

> <PUBCHEM_IUPAC_OPENEYE_NAME>
2-[3-(2,5-dimethylpyrrol-1-yl)-2-thienyl]-5-methyl-1H-pyrazolo[1,5-a]pyrimidin-7-one

> <PUBCHEM_IUPAC_SYSTEMATIC_NAME>
2-[3-(2,5-dimethylpyrrol-1-yl)thiophen-2-yl]-5-methyl-1H-pyrazolo[1,5-a]pyrimidin-7-one

> <PUBCHEM_IUPAC_TRADITIONAL_NAME>
2-[3-(2,5-dimethylpyrrol-1-yl)-2-thienyl]-5-methyl-1H-pyrazolo[1,5-a]pyrimidin-7-one

> <PUBCHEM_MOLECULAR_FORMULA>
C17H16N4OS

> <PUBCHEM_MOLECULAR_WEIGHT>
324.40014

> <PUBCHEM_MONOISOTOPIC_WEIGHT>
324.104482

> <PUBCHEM_OPENEYE_CAN_SMILES>
CC1=CC=C(N1C2=C(SC=C2)C3=CC4=NC(=CC(=O)N4N3)C)C

> <PUBCHEM_OPENEYE_ISO_SMILES>
CC1=CC=C(N1C2=C(SC=C2)C3=CC4=NC(=CC(=O)N4N3)C)C

> <PUBCHEM_TOTAL_CHARGE>
0

> <PUBCHEM_XLOGP3_AA>
2.6

$$$$
Written by BCL::WriteToMDL,3493951
MBcorina  10171218483D 1   1.00000     0.00000 
CORINA 3.49 0026  01.06.2011
 55 58  0  0  0  0  0  0  0  0999 V2000
    0.4510    1.3284    1.1780 S   0  0  0  1  0  2  0  0  0  0  0  0
   -2.0136    0.2032    0.4922 O   0  0  0  1  0  1  0  0  0  0  0  0
   -1.5954   -1.9442    0.1235 N   0  0  0  1  0  3  0  0  0  0  0  0
    2.8990    2.4656    1.8633 N   0  0  0  1  0  3  0  0  0  0  0  0
    2.9938    0.3368    1.4390 N   0  0  0  1  0  2  0  0  0  0  0  0
    2.4097    3.7293    2.0349 N   0  0  0  1  0  3  0  0  0  0  0  0
   -3.0015   -2.2103   -0.1898 C   0  0  0  1  0  4  0  0  0  0  0  0
   -3.3933   -1.4469   -1.4286 C   0  0  0  1  0  3  0  0  0  0  0  0
   -3.1926   -3.6861   -0.4277 C   0  0  0  1  0  3  0  0  0  0  0  0
   -1.2028   -0.6980    0.4541 C   0  0  0  1  0  3  0  0  0  0  0  0
   -0.6160   -3.0327    0.0775 C   0  0  0  1  0  4  0  0  0  0  0  0
   -4.6420   -0.8599   -1.5128 C   0  0  0  1  0  3  0  0  0  0  0  0
   -4.1201   -4.3917    0.3158 C   0  0  0  1  0  3  0  0  0  0  0  0
   -2.5020   -1.3289   -2.4786 C   0  0  0  1  0  3  0  0  0  0  0  0
   -2.4444   -4.3331   -1.3933 C   0  0  0  1  0  3  0  0  0  0  0  0
    0.2436   -0.4242    0.7764 C   0  0  0  1  0  4  0  0  0  0  0  0
   -5.0014   -0.1596   -2.6492 C   0  0  0  1  0  3  0  0  0  0  0  0
   -4.2953   -5.7454    0.0976 C   0  0  0  1  0  3  0  0  0  0  0  0
   -2.8614   -0.6286   -3.6150 C   0  0  0  1  0  3  0  0  0  0  0  0
   -2.6196   -5.6868   -1.6116 C   0  0  0  1  0  3  0  0  0  0  0  0
   -3.5434   -6.3934   -0.8644 C   0  0  0  1  0  3  0  0  0  0  0  0
   -4.1120   -0.0461   -3.7013 C   0  0  0  1  0  3  0  0  0  0  0  0
    2.1824    1.3650    1.5034 C   0  0  0  1  0  3  0  0  0  0  0  0
    4.2502    0.7422    1.7506 C   0  0  0  1  0  3  0  0  0  0  0  0
    4.2062    2.0713    2.0160 C   0  0  0  1  0  3  0  0  0  0  0  0
    5.4590   -0.1166    1.7929 C   0  0  0  1  0  3  0  0  0  0  0  0
    5.3629   -1.4747    1.4950 C   0  0  0  1  0  3  0  0  0  0  0  0
    6.6961    0.4329    2.1251 C   0  0  0  1  0  3  0  0  0  0  0  0
    6.4909   -2.2688    1.5356 C   0  0  0  1  0  3  0  0  0  0  0  0
    7.8174   -0.3708    2.1625 C   0  0  0  1  0  3  0  0  0  0  0  0
    7.7151   -1.7193    1.8715 C   0  0  0  1  0  3  0  0  0  0  0  0
   -3.6262   -1.8930    0.6452 H   0  0  0  1  0  1  0  0  0  0  0  0
   -0.2539   -3.1527   -0.9436 H   0  0  0  1  0  1  0  0  0  0  0  0
    0.2211   -2.7963    0.7344 H   0  0  0  1  0  1  0  0  0  0  0  0
   -1.0864   -3.9589    0.4074 H   0  0  0  1  0  1  0  0  0  0  0  0
   -4.7076   -3.8854    1.0674 H   0  0  0  1  0  1  0  0  0  0  0  0
   -5.3369   -0.9486   -0.6908 H   0  0  0  1  0  1  0  0  0  0  0  0
   -1.7231   -3.7808   -1.9775 H   0  0  0  1  0  1  0  0  0  0  0  0
   -1.5246   -1.7835   -2.4109 H   0  0  0  1  0  1  0  0  0  0  0  0
    0.8617   -0.6750   -0.0857 H   0  0  0  1  0  1  0  0  0  0  0  0
    0.5469   -1.0309    1.6297 H   0  0  0  1  0  1  0  0  0  0  0  0
   -5.0195   -6.2968    0.6790 H   0  0  0  1  0  1  0  0  0  0  0  0
   -5.9773    0.2984   -2.7152 H   0  0  0  1  0  1  0  0  0  0  0  0
   -2.0353   -6.1922   -2.3662 H   0  0  0  1  0  1  0  0  0  0  0  0
   -2.1648   -0.5361   -4.4351 H   0  0  0  1  0  1  0  0  0  0  0  0
   -3.6800   -7.4511   -1.0347 H   0  0  0  1  0  1  0  0  0  0  0  0
   -4.3929    0.5007   -4.5892 H   0  0  0  1  0  1  0  0  0  0  0  0
    5.0393    2.6997    2.2943 H   0  0  0  1  0  1  0  0  0  0  0  0
    4.4075   -1.9050    1.2334 H   0  0  0  1  0  1  0  0  0  0  0  0
    6.7771    1.4855    2.3525 H   0  0  0  1  0  1  0  0  0  0  0  0
    2.1130    3.8759    2.9881 H   0  0  0  1  0  1  0  0  0  0  0  0
    3.0897    4.4212    1.7574 H   0  0  0  1  0  1  0  0  0  0  0  0
    6.4177   -3.3214    1.3049 H   0  0  0  1  0  1  0  0  0  0  0  0
    8.7766    0.0539    2.4194 H   0  0  0  1  0  1  0  0  0  0  0  0
    8.5951   -2.3446    1.9026 H   0  0  0  1  0  1  0  0  0  0  0  0
  1 16  1  0  0  0  0
  1 23  1  0  0  0  0
  2 10  2  0  0  0  0
  3  7  1  0  0  0  0
  3 10  1  0  0  0  0
  3 11  1  0  0  0  0
  4  6  1  0  0  0  0
  4 23  1  0  0  0  0
  4 25  1  0  0  0  0
  5 23  2  0  0  0  0
  5 24  1  0  0  0  0
  6 51  1  0  0  0  0
  6 52  1  0  0  0  0
  7  8  1  0  0  0  0
  7  9  1  0  0  0  0
  7 32  1  0  0  0  0
  8 12  2  0  0  0  0
  8 14  1  0  0  0  0
  9 13  2  0  0  0  0
  9 15  1  0  0  0  0
 10 16  1  0  0  0  0
 11 33  1  0  0  0  0
 11 34  1  0  0  0  0
 11 35  1  0  0  0  0
 12 17  1  0  0  0  0
 12 37  1  0  0  0  0
 13 18  1  0  0  0  0
 13 36  1  0  0  0  0
 14 19  2  0  0  0  0
 14 39  1  0  0  0  0
 15 20  2  0  0  0  0
 15 38  1  0  0  0  0
 16 40  1  0  0  0  0
 16 41  1  0  0  0  0
 17 22  2  0  0  0  0
 17 43  1  0  0  0  0
 18 21  2  0  0  0  0
 18 42  1  0  0  0  0
 19 22  1  0  0  0  0
 19 45  1  0  0  0  0
 20 21  1  0  0  0  0
 20 44  1  0  0  0  0
 21 46  1  0  0  0  0
 22 47  1  0  0  0  0
 24 25  2  0  0  0  0
 24 26  1  0  0  0  0
 25 48  1  0  0  0  0
 26 27  2  0  0  0  0
 26 28  1  0  0  0  0
 27 29  1  0  0  0  0
 27 49  1  0  0  0  0
 28 30  2  0  0  0  0
 28 50  1  0  0  0  0
 29 31  2  0  0  0  0
 29 53  1  0  0  0  0
 30 31  1  0  0  0  0
 30 54  1  0  0  0  0
 31 55  1  0  0  0  0
M  END
> <Activity>
0.53972

> <Mapped(file=504701.csv.activities,property=Cached(PUBCHEM_COMPOUND_CID))>
0.53972

> <PUBCHEM_ATOM_DEF_STEREO_COUNT>
0

> <PUBCHEM_ATOM_UDEF_STEREO_COUNT>
0

> <PUBCHEM_BONDANNOTATIONS>
12  17  8
13  18  8
14  19  8
15  20  8
17  22  8
18  21  8
19  22  8
20  21  8
24  25  8
26  27  8
26  28  8
27  29  8
28  30  8
29  31  8
30  31  8
4  23  8
4  25  8
5  23  8
5  24  8
8  12  8
8  14  8
9  13  8
9  15  8

> <PUBCHEM_BOND_DEF_STEREO_COUNT>
0

> <PUBCHEM_BOND_UDEF_STEREO_COUNT>
0

> <PUBCHEM_CACTVS_COMPLEXITY>
540

> <PUBCHEM_CACTVS_HBOND_ACCEPTOR>
3

> <PUBCHEM_CACTVS_HBOND_DONOR>
1

> <PUBCHEM_CACTVS_ROTATABLE_BOND>
7

> <PUBCHEM_CACTVS_SUBSKEYS>
AAADceB7oABAAAAAAAAAAAAAAAAAAWAAAAAwYMAAAAAAAAAB1AAAHgQYAAAADCjF3gS/kJcKEAioAzV3dACC1C1xErAd+CA4dJiIaKLAmRGUIAhohgLIyCcQgMAOAAAAAAAAAAAAAAAAAAAAAAAAAAAAAA==

> <PUBCHEM_CACTVS_TAUTO_COUNT>
1

> <PUBCHEM_CACTVS_TPSA>
89.4

> <PUBCHEM_COMPONENT_COUNT>
1

> <PUBCHEM_COMPOUND_CANONICALIZED>
1

> <PUBCHEM_COMPOUND_CID>
3493951

> <PUBCHEM_COORDINATE_TYPE>
1
5
255

> <PUBCHEM_EXACT_MASS>
428.167082

> <PUBCHEM_HEAVY_ATOM_COUNT>
31

> <PUBCHEM_ISOTOPIC_ATOM_COUNT>
0

> <PUBCHEM_IUPAC_CAS_NAME>
2-[(1-amino-4-phenyl-2-imidazolyl)thio]-N-(diphenylmethyl)-N-methylacetamide

> <PUBCHEM_IUPAC_INCHI>
InChI=1S/C25H24N4OS/c1-28(24(20-13-7-3-8-14-20)21-15-9-4-10-16-21)23(30)18-31-25-27-22(17-29(25)26)19-11-5-2-6-12-19/h2-17,24H,18,26H2,1H3

> <PUBCHEM_IUPAC_INCHIKEY>
KGWMKIJRSULRGY-UHFFFAOYSA-N

> <PUBCHEM_IUPAC_NAME>
2-(1-amino-4-phenylimidazol-2-yl)sulfanyl-N-benzhydryl-N-methylacetamide

> <PUBCHEM_IUPAC_OPENEYE_NAME>
2-(1-amino-4-phenyl-imidazol-2-yl)sulfanyl-N-benzhydryl-N-methyl-acetamide

> <PUBCHEM_IUPAC_SYSTEMATIC_NAME>
2-(1-azanyl-4-phenyl-imidazol-2-yl)sulfanyl-N-(diphenylmethyl)-N-methyl-ethanamide

> <PUBCHEM_IUPAC_TRADITIONAL_NAME>
2-[(1-amino-4-phenyl-imidazol-2-yl)thio]-N-benzhydryl-N-methyl-acetamide

> <PUBCHEM_MOLECULAR_FORMULA>
C25H24N4OS

> <PUBCHEM_MOLECULAR_WEIGHT>
428.54926

> <PUBCHEM_MONOISOTOPIC_WEIGHT>
428.167082

> <PUBCHEM_OPENEYE_CAN_SMILES>
CN(C(C1=CC=CC=C1)C2=CC=CC=C2)C(=O)CSC3=NC(=CN3N)C4=CC=CC=C4

> <PUBCHEM_OPENEYE_ISO_SMILES>
CN(C(C1=CC=CC=C1)C2=CC=CC=C2)C(=O)CSC3=NC(=CN3N)C4=CC=CC=C4

> <PUBCHEM_TOTAL_CHARGE>
0

> <PUBCHEM_XLOGP3_AA>
5

$$$$
Written by BCL::WriteToMDL,1084866
MBcorina  10171218483D 1   1.00000     0.00000 
CORINA 3.49 0026  01.06.2011
 45 47  0  0  0  0  0  0  0  0999 V2000
    6.1760    0.9415   -3.0578 Cl  0  0  0  1  0  1  0  0  0  0  0  0
    0.7972    2.0616   -0.0510 S   0  0  0  1  0  4  0  0  0  0  0  0
    0.8748    3.3980    0.4258 O   0  0  0  1  0  1  0  0  0  0  0  0
    0.5724    0.9450    0.7986 O   0  0  0  1  0  1  0  0  0  0  0  0
   -1.8568    3.8992    0.1187 O   0  0  0  1  0  1  0  0  0  0  0  0
   -0.4801    8.1401   -1.4593 O   0  0  0  1  0  2  0  0  0  0  0  0
   -0.4113    2.0386   -1.1830 N   0  0  0  1  0  3  0  0  0  0  0  0
   -1.4466    5.5399   -1.3173 N   0  0  0  1  0  3  0  0  0  0  0  0
   -0.9098    3.2038   -1.9282 C   0  0  0  1  0  4  0  0  0  0  0  0
   -2.0478    2.7086   -2.8453 C   0  0  0  1  0  4  0  0  0  0  0  0
   -2.5071    1.3984   -2.1527 C   0  0  0  1  0  4  0  0  0  0  0  0
   -1.1612    0.8451   -1.6150 C   0  0  0  1  0  4  0  0  0  0  0  0
   -1.4385    4.2382   -0.9682 C   0  0  0  1  0  3  0  0  0  0  0  0
    2.3103    1.7465   -0.8971 C   0  0  0  1  0  3  0  0  0  0  0  0
    3.0990    2.8009   -1.3182 C   0  0  0  1  0  3  0  0  0  0  0  0
    2.7111    0.4449   -1.1343 C   0  0  0  1  0  3  0  0  0  0  0  0
   -1.8582    6.5103   -0.3942 C   0  0  0  1  0  3  0  0  0  0  0  0
    4.2860    2.5543   -1.9819 C   0  0  0  1  0  3  0  0  0  0  0  0
    3.8984    0.1971   -1.7971 C   0  0  0  1  0  3  0  0  0  0  0  0
   -1.3637    7.8102   -0.4798 C   0  0  0  1  0  3  0  0  0  0  0  0
    4.6851    1.2520   -2.2243 C   0  0  0  1  0  3  0  0  0  0  0  0
   -2.7632    6.1811    0.6038 C   0  0  0  1  0  3  0  0  0  0  0  0
   -1.7740    8.7653    0.4355 C   0  0  0  1  0  3  0  0  0  0  0  0
   -3.1677    7.1402    1.5135 C   0  0  0  1  0  3  0  0  0  0  0  0
   -2.6723    8.4282    1.4314 C   0  0  0  1  0  3  0  0  0  0  0  0
   -0.0156    9.4913   -1.4858 C   0  0  0  1  0  4  0  0  0  0  0  0
   -0.1072    3.6298   -2.5303 H   0  0  0  1  0  1  0  0  0  0  0  0
   -2.8611    3.4337   -2.8766 H   0  0  0  1  0  1  0  0  0  0  0  0
   -1.6734    2.5039   -3.8483 H   0  0  0  1  0  1  0  0  0  0  0  0
   -3.2000    1.6091   -1.3382 H   0  0  0  1  0  1  0  0  0  0  0  0
   -2.9505    0.7106   -2.8727 H   0  0  0  1  0  1  0  0  0  0  0  0
   -0.6207    0.3226   -2.4044 H   0  0  0  1  0  1  0  0  0  0  0  0
   -1.3358    0.1800   -0.7693 H   0  0  0  1  0  1  0  0  0  0  0  0
   -1.1676    5.8050   -2.2077 H   0  0  0  1  0  1  0  0  0  0  0  0
    2.7873    3.8175   -1.1289 H   0  0  0  1  0  1  0  0  0  0  0  0
    2.0966   -0.3784   -0.8014 H   0  0  0  1  0  1  0  0  0  0  0  0
    4.9017    3.3781   -2.3115 H   0  0  0  1  0  1  0  0  0  0  0  0
    4.2114   -0.8198   -1.9824 H   0  0  0  1  0  1  0  0  0  0  0  0
   -3.1521    5.1757    0.6700 H   0  0  0  1  0  1  0  0  0  0  0  0
   -1.3921    9.7735    0.3717 H   0  0  0  1  0  1  0  0  0  0  0  0
   -3.8728    6.8827    2.2900 H   0  0  0  1  0  1  0  0  0  0  0  0
   -2.9909    9.1741    2.1444 H   0  0  0  1  0  1  0  0  0  0  0  0
   -0.8629   10.1643   -1.6169 H   0  0  0  1  0  1  0  0  0  0  0  0
    0.4887    9.7206   -0.5470 H   0  0  0  1  0  1  0  0  0  0  0  0
    0.6818    9.6195   -2.3136 H   0  0  0  1  0  1  0  0  0  0  0  0
  1 21  1  0  0  0  0
  2  3  2  0  0  0  0
  2  4  2  0  0  0  0
  2  7  1  0  0  0  0
  2 14  1  0  0  0  0
  5 13  2  0  0  0  0
  6 20  1  0  0  0  0
  6 26  1  0  0  0  0
  7  9  1  0  0  0  0
  7 12  1  0  0  0  0
  8 13  1  0  0  0  0
  8 17  1  0  0  0  0
  8 34  1  0  0  0  0
  9 10  1  0  0  0  0
  9 13  1  0  0  0  0
  9 27  1  0  0  0  0
 10 11  1  0  0  0  0
 10 28  1  0  0  0  0
 10 29  1  0  0  0  0
 11 12  1  0  0  0  0
 11 30  1  0  0  0  0
 11 31  1  0  0  0  0
 12 32  1  0  0  0  0
 12 33  1  0  0  0  0
 14 15  2  0  0  0  0
 14 16  1  0  0  0  0
 15 18  1  0  0  0  0
 15 35  1  0  0  0  0
 16 19  2  0  0  0  0
 16 36  1  0  0  0  0
 17 20  1  0  0  0  0
 17 22  2  0  0  0  0
 18 21  2  0  0  0  0
 18 37  1  0  0  0  0
 19 21  1  0  0  0  0
 19 38  1  0  0  0  0
 20 23  2  0  0  0  0
 22 24  1  0  0  0  0
 22 39  1  0  0  0  0
 23 25  1  0  0  0  0
 23 40  1  0  0  0  0
 24 25  2  0  0  0  0
 24 41  1  0  0  0  0
 25 42  1  0  0  0  0
 26 43  1  0  0  0  0
 26 44  1  0  0  0  0
 26 45  1  0  0  0  0
M  END
> <Activity>
1.212

> <Mapped(file=504701.csv.activities,property=Cached(PUBCHEM_COMPOUND_CID))>
1.212

> <PUBCHEM_ATOM_DEF_STEREO_COUNT>
1

> <PUBCHEM_ATOM_UDEF_STEREO_COUNT>
0

> <PUBCHEM_BONDANNOTATIONS>
14  15  8
14  16  8
15  18  8
16  19  8
17  20  8
17  22  8
18  21  8
19  21  8
20  23  8
22  24  8
23  25  8
24  25  8
9  13  5

> <PUBCHEM_BOND_DEF_STEREO_COUNT>
0

> <PUBCHEM_BOND_UDEF_STEREO_COUNT>
0

> <PUBCHEM_CACTVS_COMPLEXITY>
587

> <PUBCHEM_CACTVS_HBOND_ACCEPTOR>
5

> <PUBCHEM_CACTVS_HBOND_DONOR>
1

> <PUBCHEM_CACTVS_ROTATABLE_BOND>
5

> <PUBCHEM_CACTVS_SUBSKEYS>
AAADceB7OABEAAAAAAAAAAAAAAAAAWAAAAAwYAAAAAAAAAABQAAAHgYQQAAACC7B0CYyx4LABAKIACVSUHDCCBAhJwAIiBmPbogOZjLFs7uVMChk1BHY6AeYQQAAAAIAAAAAEAAABAAAAAAgAAAAAAAAAA==

> <PUBCHEM_CACTVS_TAUTO_COUNT>
3

> <PUBCHEM_CACTVS_TPSA>
84.1

> <PUBCHEM_COMPONENT_COUNT>
1

> <PUBCHEM_COMPOUND_CANONICALIZED>
1

> <PUBCHEM_COMPOUND_CID>
1084866

> <PUBCHEM_COORDINATE_TYPE>
1
5
255

> <PUBCHEM_EXACT_MASS>
394.075406

> <PUBCHEM_HEAVY_ATOM_COUNT>
26

> <PUBCHEM_ISOTOPIC_ATOM_COUNT>
0

> <PUBCHEM_IUPAC_CAS_NAME>
(2S)-1-(4-chlorophenyl)sulfonyl-N-(2-methoxyphenyl)-2-pyrrolidinecarboxamide

> <PUBCHEM_IUPAC_INCHI>
InChI=1S/C18H19ClN2O4S/c1-25-17-7-3-2-5-15(17)20-18(22)16-6-4-12-21(16)26(23,24)14-10-8-13(19)9-11-14/h2-3,5,7-11,16H,4,6,12H2,1H3,(H,20,22)/t16-/m0/s1

> <PUBCHEM_IUPAC_INCHIKEY>
PIHCOUNEIQIOLH-INIZCTEOSA-N

> <PUBCHEM_IUPAC_NAME>
(2S)-1-(4-chlorophenyl)sulfonyl-N-(2-methoxyphenyl)pyrrolidine-2-carboxamide

> <PUBCHEM_IUPAC_OPENEYE_NAME>
(2S)-1-(4-chlorophenyl)sulfonyl-N-(2-methoxyphenyl)pyrrolidine-2-carboxamide

> <PUBCHEM_IUPAC_SYSTEMATIC_NAME>
(2S)-1-(4-chlorophenyl)sulfonyl-N-(2-methoxyphenyl)pyrrolidine-2-carboxamide

> <PUBCHEM_IUPAC_TRADITIONAL_NAME>
(2S)-1-(4-chlorophenyl)sulfonyl-N-(2-methoxyphenyl)pyrrolidine-2-carboxamide

> <PUBCHEM_MOLECULAR_FORMULA>
C18H19ClN2O4S

> <PUBCHEM_MOLECULAR_WEIGHT>
394.87246

> <PUBCHEM_MONOISOTOPIC_WEIGHT>
394.075406

> <PUBCHEM_OPENEYE_CAN_SMILES>
COC1=CC=CC=C1NC(=O)C2CCCN2S(=O)(=O)C3=CC=C(C=C3)Cl

> <PUBCHEM_OPENEYE_ISO_SMILES>
COC1=CC=CC=C1NC(=O)[C@@H]2CCCN2S(=O)(=O)C3=CC=C(C=C3)Cl

> <PUBCHEM_TOTAL_CHARGE>
0

> <PUBCHEM_XLOGP3_AA>
3.1

$$$$
Written by BCL::WriteToMDL,5376739
MBcorina  10171218483D 1   1.00000     0.00000 
CORINA 3.49 0026  01.06.2011
 28 29  0  0  0  0  0  0  0  0999 V2000
   -0.0218    1.7540    0.0117 S   0  0  0  1  0  2  0  0  0  0  0  0
   -1.0490   -2.0835   -0.0002 O   0  0  0  1  0  1  0  0  0  0  0  0
   -7.1397   -0.2623    0.0666 N   0  0  0  1  0  3  0  0  0  0  0  0
   -6.5631    1.0126    0.0689 N   0  0  0  1  0  2  0  0  0  0  0  0
   -6.1543   -1.1764    0.0518 C   0  0  0  1  0  3  0  0  0  0  0  0
   -4.9540   -0.4892    0.0447 C   0  0  0  1  0  3  0  0  0  0  0  0
   -5.2644    0.8908    0.0560 C   0  0  0  1  0  3  0  0  0  0  0  0
   -6.3257   -2.6737    0.0451 C   0  0  0  1  0  4  0  0  0  0  0  0
   -3.6091   -1.0812    0.0290 C   0  0  0  1  0  3  0  0  0  0  0  0
   -8.5756   -0.5522    0.0837 C   0  0  0  1  0  4  0  0  0  0  0  0
   -2.5193   -0.2825    0.0236 C   0  0  0  1  0  3  0  0  0  0  0  0
   -1.1815   -0.8715    0.0079 C   0  0  0  1  0  3  0  0  0  0  0  0
    0.0021   -0.0041    0.0020 C   0  0  0  1  0  3  0  0  0  0  0  0
    1.3000   -0.4334   -0.0127 C   0  0  0  1  0  3  0  0  0  0  0  0
    2.2125    0.5948   -0.0159 C   0  0  0  1  0  3  0  0  0  0  0  0
    1.6829    1.8240   -0.0042 C   0  0  0  1  0  3  0  0  0  0  0  0
   -4.5511    1.7016    0.0542 H   0  0  0  1  0  1  0  0  0  0  0  0
   -6.3766   -3.0289   -0.9841 H   0  0  0  1  0  1  0  0  0  0  0  0
   -5.4780   -3.1386    0.5485 H   0  0  0  1  0  1  0  0  0  0  0  0
   -7.2464   -2.9363    0.5662 H   0  0  0  1  0  1  0  0  0  0  0  0
   -3.4918   -2.1548    0.0218 H   0  0  0  1  0  1  0  0  0  0  0  0
   -8.9455   -0.6163   -0.9396 H   0  0  0  1  0  1  0  0  0  0  0  0
   -8.7489   -1.5003    0.5928 H   0  0  0  1  0  1  0  0  0  0  0  0
   -9.1008    0.2445    0.6106 H   0  0  0  1  0  1  0  0  0  0  0  0
   -2.6366    0.7911    0.0308 H   0  0  0  1  0  1  0  0  0  0  0  0
    1.5805   -1.4763   -0.0204 H   0  0  0  1  0  1  0  0  0  0  0  0
    3.2788    0.4233   -0.0270 H   0  0  0  1  0  1  0  0  0  0  0  0
    2.2579    2.7382   -0.0048 H   0  0  0  1  0  1  0  0  0  0  0  0
  1 13  1  0  0  0  0
  1 16  1  0  0  0  0
  2 12  2  0  0  0  0
  3  4  1  0  0  0  0
  3  5  1  0  0  0  0
  3 10  1  0  0  0  0
  4  7  2  0  0  0  0
  5  6  2  0  0  0  0
  5  8  1  0  0  0  0
  6  7  1  0  0  0  0
  6  9  1  0  0  0  0
  7 17  1  0  0  0  0
  8 18  1  0  0  0  0
  8 19  1  0  0  0  0
  8 20  1  0  0  0  0
  9 11  2  0  0  0  0
  9 21  1  0  0  0  0
 10 22  1  0  0  0  0
 10 23  1  0  0  0  0
 10 24  1  0  0  0  0
 11 12  1  0  0  0  0
 11 25  1  0  0  0  0
 12 13  1  0  0  0  0
 13 14  2  0  0  0  0
 14 15  1  0  0  0  0
 14 26  1  0  0  0  0
 15 16  2  0  0  0  0
 15 27  1  0  0  0  0
 16 28  1  0  0  0  0
M  END
> <Activity>
3.965

> <Mapped(file=504701.csv.activities,property=Cached(PUBCHEM_COMPOUND_CID))>
3.965

> <PUBCHEM_ATOM_DEF_STEREO_COUNT>
0

> <PUBCHEM_ATOM_UDEF_STEREO_COUNT>
0

> <PUBCHEM_BONDANNOTATIONS>
1  13  8
1  16  8
13  14  8
14  15  8
15  16  8
3  4  8
3  5  8
4  7  8
5  6  8
6  7  8

> <PUBCHEM_BOND_DEF_STEREO_COUNT>
1

> <PUBCHEM_BOND_UDEF_STEREO_COUNT>
0

> <PUBCHEM_CACTVS_COMPLEXITY>
293

> <PUBCHEM_CACTVS_HBOND_ACCEPTOR>
3

> <PUBCHEM_CACTVS_HBOND_DONOR>
0

> <PUBCHEM_CACTVS_ROTATABLE_BOND>
3

> <PUBCHEM_CACTVS_SUBSKEYS>
AAADccBzIABAAAAAAAAAAAAAAAAAAWJAAAAAAAAAAAAAAAAB4AAAHgQIAAAADAzF3gS+gZIIAAiuA7R3RACTBIAliBBY2Dk4RNgIILLg1dCEhQhgiABoyYcIAAAIAAAAAAAAAAAAAAAAAAAAAAAAAAAAAA==

> <PUBCHEM_CACTVS_TAUTO_COUNT>
5

> <PUBCHEM_CACTVS_TPSA>
63.1

> <PUBCHEM_COMPONENT_COUNT>
1

> <PUBCHEM_COMPOUND_CANONICALIZED>
1

> <PUBCHEM_COMPOUND_CID>
5376739

> <PUBCHEM_COORDINATE_TYPE>
1
5
255

> <PUBCHEM_EXACT_MASS>
232.067034

> <PUBCHEM_HEAVY_ATOM_COUNT>
16

> <PUBCHEM_ISOTOPIC_ATOM_COUNT>
0

> <PUBCHEM_IUPAC_CAS_NAME>
(E)-3-(1,5-dimethyl-4-pyrazolyl)-1-thiophen-2-yl-2-propen-1-one

> <PUBCHEM_IUPAC_INCHI>
InChI=1S/C12H12N2OS/c1-9-10(8-13-14(9)2)5-6-11(15)12-4-3-7-16-12/h3-8H,1-2H3/b6-5+

> <PUBCHEM_IUPAC_INCHIKEY>
CASRTAOYDNMUOI-AATRIKPKSA-N

> <PUBCHEM_IUPAC_NAME>
(E)-3-(1,5-dimethylpyrazol-4-yl)-1-thiophen-2-ylprop-2-en-1-one

> <PUBCHEM_IUPAC_OPENEYE_NAME>
(E)-3-(1,5-dimethylpyrazol-4-yl)-1-(2-thienyl)prop-2-en-1-one

> <PUBCHEM_IUPAC_SYSTEMATIC_NAME>
(E)-3-(1,5-dimethylpyrazol-4-yl)-1-thiophen-2-yl-prop-2-en-1-one

> <PUBCHEM_IUPAC_TRADITIONAL_NAME>
(E)-3-(1,5-dimethylpyrazol-4-yl)-1-(2-thienyl)prop-2-en-1-one

> <PUBCHEM_MOLECULAR_FORMULA>
C12H12N2OS

> <PUBCHEM_MOLECULAR_WEIGHT>
232.30148

> <PUBCHEM_MONOISOTOPIC_WEIGHT>
232.067034

> <PUBCHEM_OPENEYE_CAN_SMILES>
CC1=C(C=NN1C)C=CC(=O)C2=CC=CS2

> <PUBCHEM_OPENEYE_ISO_SMILES>
CC1=C(C=NN1C)/C=C/C(=O)C2=CC=CS2

> <PUBCHEM_TOTAL_CHARGE>
0

> <PUBCHEM_XLOGP3_AA>
2.4

$$$$
Written by BCL::WriteToMDL,1441409
MBcorina  10171218483D 1   1.00000     0.00000 
CORINA 3.49 0026  01.06.2011
 58 63  0  0  0  0  0  0  0  0999 V2000
    1.9722   -0.8021   -2.0228 O   0  0  0  1  0  2  0  0  0  0  0  0
    1.2182   -0.2820    0.1244 O   0  0  0  1  0  2  0  0  0  0  0  0
   -1.2036   -2.5605    0.0134 N   0  0  0  1  0  3  0  0  0  0  0  0
   -2.6472   -4.0360    1.2132 N   0  0  0  1  0  3  0  0  0  0  0  0
   -2.2327   -3.8503    2.5372 N   0  0  0  1  0  2  0  0  0  0  0  0
   -4.2603   -5.3197    0.0716 N   0  0  0  1  0  2  0  0  0  0  0  0
    1.0014   -1.1247   -1.0190 C   0  0  0  1  0  4  0  0  0  0  0  0
   -0.4055   -0.8837   -1.5697 C   0  0  0  1  0  4  0  0  0  0  0  0
    1.1560   -2.5902   -0.6080 C   0  0  0  1  0  4  0  0  0  0  0  0
    0.1393   -2.9192    0.4897 C   0  0  0  1  0  4  0  0  0  0  0  0
   -1.4368   -1.1967   -0.4809 C   0  0  0  1  0  4  0  0  0  0  0  0
    2.7907    0.2638   -1.4997 C   0  0  0  1  0  4  0  0  0  0  0  0
    1.8948    0.8860   -0.3996 C   0  0  0  1  0  4  0  0  0  0  0  0
   -2.2258   -3.4868    0.0295 C   0  0  0  1  0  3  0  0  0  0  0  0
   -2.8319   -3.8687   -1.1330 C   0  0  0  1  0  3  0  0  0  0  0  0
   -3.6695   -4.9511    1.2162 C   0  0  0  1  0  3  0  0  0  0  0  0
   -3.8716   -4.8142   -1.0879 C   0  0  0  1  0  3  0  0  0  0  0  0
   -3.8793   -5.3233    2.5361 C   0  0  0  1  0  3  0  0  0  0  0  0
   -2.9620   -4.6211    3.3234 C   0  0  0  1  0  3  0  0  0  0  0  0
   -4.5408   -5.2377   -2.3407 C   0  0  0  1  0  3  0  0  0  0  0  0
   -2.8361   -4.7176    4.7992 C   0  0  0  1  0  3  0  0  0  0  0  0
   -5.5789   -6.1676   -2.2998 C   0  0  0  1  0  3  0  0  0  0  0  0
   -4.1386   -4.7035   -3.5641 C   0  0  0  1  0  3  0  0  0  0  0  0
   -1.8846   -3.9533    5.4711 C   0  0  0  1  0  3  0  0  0  0  0  0
   -3.6727   -5.5686    5.5181 C   0  0  0  1  0  3  0  0  0  0  0  0
   -6.1986   -6.5578   -3.4694 C   0  0  0  1  0  3  0  0  0  0  0  0
   -4.7657   -5.1013   -4.7272 C   0  0  0  1  0  3  0  0  0  0  0  0
   -1.7717   -4.0469    6.8435 C   0  0  0  1  0  3  0  0  0  0  0  0
   -3.5513   -5.6545    6.8903 C   0  0  0  1  0  3  0  0  0  0  0  0
   -2.6011   -4.8977    7.5517 C   0  0  0  1  0  3  0  0  0  0  0  0
   -5.7913   -6.0285   -4.6810 C   0  0  0  1  0  3  0  0  0  0  0  0
   -2.4732   -4.9957    9.0501 C   0  0  0  1  0  4  0  0  0  0  0  0
   -0.5032    0.1582   -1.8746 H   0  0  0  1  0  1  0  0  0  0  0  0
   -0.5757   -1.5321   -2.4291 H   0  0  0  1  0  1  0  0  0  0  0  0
    0.9788   -3.2309   -1.4719 H   0  0  0  1  0  1  0  0  0  0  0  0
    2.1650   -2.7578   -0.2313 H   0  0  0  1  0  1  0  0  0  0  0  0
   -2.4414   -1.1260   -0.8980 H   0  0  0  1  0  1  0  0  0  0  0  0
   -1.3288   -0.4872    0.3395 H   0  0  0  1  0  1  0  0  0  0  0  0
    0.3733   -2.3474    1.3877 H   0  0  0  1  0  1  0  0  0  0  0  0
    0.1750   -3.9854    0.7132 H   0  0  0  1  0  1  0  0  0  0  0  0
    3.7103   -0.1325   -1.0692 H   0  0  0  1  0  1  0  0  0  0  0  0
    3.0120    0.9961   -2.2762 H   0  0  0  1  0  1  0  0  0  0  0  0
    1.1821    1.5901   -0.8288 H   0  0  0  1  0  1  0  0  0  0  0  0
    2.4990    1.3654    0.3707 H   0  0  0  1  0  1  0  0  0  0  0  0
   -2.5165   -3.4488   -2.0768 H   0  0  0  1  0  1  0  0  0  0  0  0
   -4.6145   -6.0306    2.8904 H   0  0  0  1  0  1  0  0  0  0  0  0
   -5.8973   -6.5820   -1.3546 H   0  0  0  1  0  1  0  0  0  0  0  0
   -3.3380   -3.9796   -3.6014 H   0  0  0  1  0  1  0  0  0  0  0  0
   -1.2363   -3.2889    4.9190 H   0  0  0  1  0  1  0  0  0  0  0  0
   -4.4152   -6.1597    5.0026 H   0  0  0  1  0  1  0  0  0  0  0  0
   -7.0028   -7.2780   -3.4390 H   0  0  0  1  0  1  0  0  0  0  0  0
   -4.4552   -4.6879   -5.6754 H   0  0  0  1  0  1  0  0  0  0  0  0
   -1.0343   -3.4551    7.3654 H   0  0  0  1  0  1  0  0  0  0  0  0
   -4.1996   -6.3137    7.4486 H   0  0  0  1  0  1  0  0  0  0  0  0
   -6.2790   -6.3371   -5.5939 H   0  0  0  1  0  1  0  0  0  0  0  0
   -3.1277   -4.2612    9.5195 H   0  0  0  1  0  1  0  0  0  0  0  0
   -2.7585   -5.9965    9.3744 H   0  0  0  1  0  1  0  0  0  0  0  0
   -1.4408   -4.8003    9.3402 H   0  0  0  1  0  1  0  0  0  0  0  0
  1  7  1  0  0  0  0
  1 12  1  0  0  0  0
  2  7  1  0  0  0  0
  2 13  1  0  0  0  0
  3 10  1  0  0  0  0
  3 11  1  0  0  0  0
  3 14  1  0  0  0  0
  4  5  1  0  0  0  0
  4 14  1  0  0  0  0
  4 16  1  0  0  0  0
  5 19  2  0  0  0  0
  6 16  1  0  0  0  0
  6 17  2  0  0  0  0
  7  8  1  0  0  0  0
  7  9  1  0  0  0  0
  8 11  1  0  0  0  0
  8 33  1  0  0  0  0
  8 34  1  0  0  0  0
  9 10  1  0  0  0  0
  9 35  1  0  0  0  0
  9 36  1  0  0  0  0
 10 39  1  0  0  0  0
 10 40  1  0  0  0  0
 11 37  1  0  0  0  0
 11 38  1  0  0  0  0
 12 13  1  0  0  0  0
 12 41  1  0  0  0  0
 12 42  1  0  0  0  0
 13 43  1  0  0  0  0
 13 44  1  0  0  0  0
 14 15  2  0  0  0  0
 15 17  1  0  0  0  0
 15 45  1  0  0  0  0
 16 18  2  0  0  0  0
 17 20  1  0  0  0  0
 18 19  1  0  0  0  0
 18 46  1  0  0  0  0
 19 21  1  0  0  0  0
 20 22  2  0  0  0  0
 20 23  1  0  0  0  0
 21 24  2  0  0  0  0
 21 25  1  0  0  0  0
 22 26  1  0  0  0  0
 22 47  1  0  0  0  0
 23 27  2  0  0  0  0
 23 48  1  0  0  0  0
 24 28  1  0  0  0  0
 24 49  1  0  0  0  0
 25 29  2  0  0  0  0
 25 50  1  0  0  0  0
 26 31  2  0  0  0  0
 26 51  1  0  0  0  0
 27 31  1  0  0  0  0
 27 52  1  0  0  0  0
 28 30  2  0  0  0  0
 28 53  1  0  0  0  0
 29 30  1  0  0  0  0
 29 54  1  0  0  0  0
 30 32  1  0  0  0  0
 31 55  1  0  0  0  0
 32 56  1  0  0  0  0
 32 57  1  0  0  0  0
 32 58  1  0  0  0  0
M  END
> <Activity>
5.68

> <Mapped(file=504701.csv.activities,property=Cached(PUBCHEM_COMPOUND_CID))>
5.68

> <PUBCHEM_ATOM_DEF_STEREO_COUNT>
0

> <PUBCHEM_ATOM_UDEF_STEREO_COUNT>
0

> <PUBCHEM_BONDANNOTATIONS>
14  15  8
15  17  8
16  18  8
18  19  8
20  22  8
20  23  8
21  24  8
21  25  8
22  26  8
23  27  8
24  28  8
25  29  8
26  31  8
27  31  8
28  30  8
29  30  8
4  14  8
4  16  8
4  5  8
5  19  8
6  16  8
6  17  8

> <PUBCHEM_BOND_DEF_STEREO_COUNT>
0

> <PUBCHEM_BOND_UDEF_STEREO_COUNT>
0

> <PUBCHEM_CACTVS_COMPLEXITY>
617

> <PUBCHEM_CACTVS_HBOND_ACCEPTOR>
3

> <PUBCHEM_CACTVS_HBOND_DONOR>
0

> <PUBCHEM_CACTVS_ROTATABLE_BOND>
3

> <PUBCHEM_CACTVS_SUBSKEYS>
AAADceB7sAAAAAAAAAAAAAAAAAAAAWJAAAA8eIEAAAAAAFgB9AAAHgAIAAAADAzhnwYzuJ8IFACiAyZiZACShCshAqAdmCA4ZJiZKOLA2dGmpAhqiALOyCcQgMAOQAAAAAAAAACAAAAAAAAAAAAAAAAAAA==

> <PUBCHEM_CACTVS_TAUTO_COUNT>
1

> <PUBCHEM_CACTVS_TPSA>
51.9

> <PUBCHEM_COMPONENT_COUNT>
1

> <PUBCHEM_COMPOUND_CANONICALIZED>
1

> <PUBCHEM_COMPOUND_CID>
1441409

> <PUBCHEM_COORDINATE_TYPE>
1
5
255

> <PUBCHEM_EXACT_MASS>
426.205576

> <PUBCHEM_HEAVY_ATOM_COUNT>
32

> <PUBCHEM_ISOTOPIC_ATOM_COUNT>
0

> <PUBCHEM_IUPAC_CAS_NAME>
8-[2-(4-methylphenyl)-5-phenyl-7-pyrazolo[1,5-a]pyrimidinyl]-1,4-dioxa-8-azaspiro[4.5]decane

> <PUBCHEM_IUPAC_INCHI>
InChI=1S/C26H26N4O2/c1-19-7-9-21(10-8-19)23-17-24-27-22(20-5-3-2-4-6-20)18-25(30(24)28-23)29-13-11-26(12-14-29)31-15-16-32-26/h2-10,17-18H,11-16H2,1H3

> <PUBCHEM_IUPAC_INCHIKEY>
NDXOATUNXVCPTB-UHFFFAOYSA-N

> <PUBCHEM_IUPAC_NAME>
8-[2-(4-methylphenyl)-5-phenylpyrazolo[1,5-a]pyrimidin-7-yl]-1,4-dioxa-8-azaspiro[4.5]decane

> <PUBCHEM_IUPAC_OPENEYE_NAME>
8-[5-phenyl-2-(p-tolyl)pyrazolo[1,5-a]pyrimidin-7-yl]-1,4-dioxa-8-azaspiro[4.5]decane

> <PUBCHEM_IUPAC_SYSTEMATIC_NAME>
8-[2-(4-methylphenyl)-5-phenyl-pyrazolo[1,5-a]pyrimidin-7-yl]-1,4-dioxa-8-azaspiro[4.5]decane

> <PUBCHEM_IUPAC_TRADITIONAL_NAME>
8-[5-phenyl-2-(p-tolyl)pyrazolo[1,5-a]pyrimidin-7-yl]-1,4-dioxa-8-azaspiro[4.5]decane

> <PUBCHEM_MOLECULAR_FORMULA>
C26H26N4O2

> <PUBCHEM_MOLECULAR_WEIGHT>
426.51024

> <PUBCHEM_MONOISOTOPIC_WEIGHT>
426.205576

> <PUBCHEM_OPENEYE_CAN_SMILES>
CC1=CC=C(C=C1)C2=NN3C(=C2)N=C(C=C3N4CCC5(CC4)OCCO5)C6=CC=CC=C6

> <PUBCHEM_OPENEYE_ISO_SMILES>
CC1=CC=C(C=C1)C2=NN3C(=C2)N=C(C=C3N4CCC5(CC4)OCCO5)C6=CC=CC=C6

> <PUBCHEM_TOTAL_CHARGE>
0

> <PUBCHEM_XLOGP3_AA>
4.4

$$$$
Written by BCL::WriteToMDL,7205716
MBcorina  10171218483D 1   1.00000     0.00000 
CORINA 3.49 0026  01.06.2011
 49 51  0  0  0  0  0  0  0  0999 V2000
   -0.0225    1.8097    0.0120 S   0  0  0  1  0  2  0  0  0  0  0  0
   -3.5615   -6.0597   -1.2064 O   0  0  0  1  0  2  0  0  0  0  0  0
   -2.3441    0.2498    0.0258 O   0  0  0  1  0  1  0  0  0  0  0  0
   -1.3643   -6.3706   -1.2346 O   0  0  0  1  0  1  0  0  0  0  0  0
   -1.6400   -1.8540    0.0078 N   0  0  0  1  0  3  0  0  0  0  0  0
   -2.0700   -4.2655   -1.2051 N   0  0  0  1  0  3  0  0  0  0  0  0
    2.6069    1.2730   -0.0160 N   0  0  0  1  0  2  0  0  0  0  0  0
    3.8639    1.5323   -0.0270 N   0  0  0  1  0  2  0  0  0  0  0  0
   -3.0134   -2.3769    0.0181 C   0  0  0  1  0  4  0  0  0  0  0  0
   -0.5200   -2.8053   -0.0142 C   0  0  0  1  0  4  0  0  0  0  0  0
   -0.6966   -3.7425   -1.2154 C   0  0  0  1  0  4  0  0  0  0  0  0
   -3.1900   -3.3141   -1.1831 C   0  0  0  1  0  4  0  0  0  0  0  0
   -1.4117   -0.5257    0.0127 C   0  0  0  1  0  3  0  0  0  0  0  0
   -2.2984   -5.5937   -1.2160 C   0  0  0  1  0  3  0  0  0  0  0  0
    0.0021   -0.0041    0.0020 C   0  0  0  1  0  4  0  0  0  0  0  0
   -3.7322   -7.5016   -1.2192 C   0  0  0  1  0  4  0  0  0  0  0  0
    1.6887    2.2294   -0.0021 C   0  0  0  1  0  3  0  0  0  0  0  0
   -5.2246   -7.8385   -1.2056 C   0  0  0  1  0  4  0  0  0  0  0  0
    2.0801    3.5701    0.0009 C   0  0  0  1  0  3  0  0  0  0  0  0
    4.3279    2.7745   -0.0252 C   0  0  0  1  0  3  0  0  0  0  0  0
    3.4339    3.8512   -0.0110 C   0  0  0  1  0  3  0  0  0  0  0  0
    5.7901    3.0221   -0.0378 C   0  0  0  1  0  3  0  0  0  0  0  0
    6.6810    1.9503   -0.0516 C   0  0  0  1  0  3  0  0  0  0  0  0
    6.2785    4.3275   -0.0417 C   0  0  0  1  0  3  0  0  0  0  0  0
    8.0406    2.1867   -0.0633 C   0  0  0  1  0  3  0  0  0  0  0  0
    7.6401    4.5520   -0.0534 C   0  0  0  1  0  3  0  0  0  0  0  0
    8.5197    3.4844   -0.0608 C   0  0  0  1  0  3  0  0  0  0  0  0
   -3.1877   -2.9290    0.9416 H   0  0  0  1  0  1  0  0  0  0  0  0
   -3.7201   -1.5504   -0.0559 H   0  0  0  1  0  1  0  0  0  0  0  0
    0.4199   -2.2617   -0.1095 H   0  0  0  1  0  1  0  0  0  0  0  0
   -0.5168   -3.3879    0.9070 H   0  0  0  1  0  1  0  0  0  0  0  0
   -3.1932   -2.7315   -2.1043 H   0  0  0  1  0  1  0  0  0  0  0  0
   -4.1299   -3.8578   -1.0878 H   0  0  0  1  0  1  0  0  0  0  0  0
    0.0101   -4.5690   -1.1414 H   0  0  0  1  0  1  0  0  0  0  0  0
   -0.5223   -3.1904   -2.1389 H   0  0  0  1  0  1  0  0  0  0  0  0
    0.5123   -0.3556   -0.8948 H   0  0  0  1  0  1  0  0  0  0  0  0
    0.5293   -0.3651    0.8851 H   0  0  0  1  0  1  0  0  0  0  0  0
   -3.2749   -7.9137   -2.1187 H   0  0  0  1  0  1  0  0  0  0  0  0
   -3.2546   -7.9318   -0.3389 H   0  0  0  1  0  1  0  0  0  0  0  0
   -5.3528   -8.9209   -1.2152 H   0  0  0  1  0  1  0  0  0  0  0  0
   -5.6820   -7.4264   -0.3061 H   0  0  0  1  0  1  0  0  0  0  0  0
   -5.7023   -7.4083   -2.0859 H   0  0  0  1  0  1  0  0  0  0  0  0
    1.3474    4.3634    0.0118 H   0  0  0  1  0  1  0  0  0  0  0  0
    3.7906    4.8705   -0.0096 H   0  0  0  1  0  1  0  0  0  0  0  0
    6.3080    0.9368   -0.0528 H   0  0  0  1  0  1  0  0  0  0  0  0
    5.5926    5.1618   -0.0360 H   0  0  0  1  0  1  0  0  0  0  0  0
    8.7319    1.3570   -0.0739 H   0  0  0  1  0  1  0  0  0  0  0  0
    8.0197    5.5631   -0.0568 H   0  0  0  1  0  1  0  0  0  0  0  0
    9.5845    3.6647   -0.0696 H   0  0  0  1  0  1  0  0  0  0  0  0
  1 15  1  0  0  0  0
  1 17  1  0  0  0  0
  2 14  1  0  0  0  0
  2 16  1  0  0  0  0
  3 13  2  0  0  0  0
  4 14  2  0  0  0  0
  5  9  1  0  0  0  0
  5 10  1  0  0  0  0
  5 13  1  0  0  0  0
  6 11  1  0  0  0  0
  6 12  1  0  0  0  0
  6 14  1  0  0  0  0
  7  8  1  0  0  0  0
  7 17  2  0  0  0  0
  8 20  2  0  0  0  0
  9 12  1  0  0  0  0
  9 28  1  0  0  0  0
  9 29  1  0  0  0  0
 10 11  1  0  0  0  0
 10 30  1  0  0  0  0
 10 31  1  0  0  0  0
 11 34  1  0  0  0  0
 11 35  1  0  0  0  0
 12 32  1  0  0  0  0
 12 33  1  0  0  0  0
 13 15  1  0  0  0  0
 15 36  1  0  0  0  0
 15 37  1  0  0  0  0
 16 18  1  0  0  0  0
 16 38  1  0  0  0  0
 16 39  1  0  0  0  0
 17 19  1  0  0  0  0
 18 40  1  0  0  0  0
 18 41  1  0  0  0  0
 18 42  1  0  0  0  0
 19 21  2  0  0  0  0
 19 43  1  0  0  0  0
 20 21  1  0  0  0  0
 20 22  1  0  0  0  0
 21 44  1  0  0  0  0
 22 23  2  0  0  0  0
 22 24  1  0  0  0  0
 23 25  1  0  0  0  0
 23 45  1  0  0  0  0
 24 26  2  0  0  0  0
 24 46  1  0  0  0  0
 25 27  2  0  0  0  0
 25 47  1  0  0  0  0
 26 27  1  0  0  0  0
 26 48  1  0  0  0  0
 27 49  1  0  0  0  0
M  END
> <Activity>
2.116

> <Mapped(file=504701.csv.activities,property=Cached(PUBCHEM_COMPOUND_CID))>
2.116

> <PUBCHEM_ATOM_DEF_STEREO_COUNT>
0

> <PUBCHEM_ATOM_UDEF_STEREO_COUNT>
0

> <PUBCHEM_BONDANNOTATIONS>
17  19  8
19  21  8
20  21  8
22  23  8
22  24  8
23  25  8
24  26  8
25  27  8
26  27  8
7  17  8
7  8  8
8  20  8

> <PUBCHEM_BOND_DEF_STEREO_COUNT>
0

> <PUBCHEM_BOND_UDEF_STEREO_COUNT>
0

> <PUBCHEM_CACTVS_COMPLEXITY>
493

> <PUBCHEM_CACTVS_HBOND_ACCEPTOR>
6

> <PUBCHEM_CACTVS_HBOND_DONOR>
0

> <PUBCHEM_CACTVS_ROTATABLE_BOND>
6

> <PUBCHEM_CACTVS_SUBSKEYS>
AAADceB7sABAAAAAAAAAAAAAAAAAAAAAAAA8WIAAAAAAAAABwAAAHgQIAAAADAjl3gayiZMABAiqAyVyWACSBABgChAYmDg4ZJgIYKKgkZGYoABgjgCoyAcQgIAOAAAAAAAAAAAAAAAAAAAAAAAAAAAAAA==

> <PUBCHEM_CACTVS_TAUTO_COUNT>
1

> <PUBCHEM_CACTVS_TPSA>
101

> <PUBCHEM_COMPONENT_COUNT>
1

> <PUBCHEM_COMPOUND_CANONICALIZED>
1

> <PUBCHEM_COMPOUND_CID>
7205716

> <PUBCHEM_COORDINATE_TYPE>
1
5
255

> <PUBCHEM_EXACT_MASS>
386.141262

> <PUBCHEM_HEAVY_ATOM_COUNT>
27

> <PUBCHEM_ISOTOPIC_ATOM_COUNT>
0

> <PUBCHEM_IUPAC_CAS_NAME>
4-[1-oxo-2-[(6-phenyl-3-pyridazinyl)thio]ethyl]-1-piperazinecarboxylic acid ethyl ester

> <PUBCHEM_IUPAC_INCHI>
InChI=1S/C19H22N4O3S/c1-2-26-19(25)23-12-10-22(11-13-23)18(24)14-27-17-9-8-16(20-21-17)15-6-4-3-5-7-15/h3-9H,2,10-14H2,1H3

> <PUBCHEM_IUPAC_INCHIKEY>
YLEXSMFDLLESHA-UHFFFAOYSA-N

> <PUBCHEM_IUPAC_NAME>
ethyl 4-[2-(6-phenylpyridazin-3-yl)sulfanylacetyl]piperazine-1-carboxylate

> <PUBCHEM_IUPAC_OPENEYE_NAME>
ethyl 4-[2-(6-phenylpyridazin-3-yl)sulfanylacetyl]piperazine-1-carboxylate

> <PUBCHEM_IUPAC_SYSTEMATIC_NAME>
ethyl 4-[2-(6-phenylpyridazin-3-yl)sulfanylethanoyl]piperazine-1-carboxylate

> <PUBCHEM_IUPAC_TRADITIONAL_NAME>
4-[2-[(6-phenylpyridazin-3-yl)thio]acetyl]piperazine-1-carboxylic acid ethyl ester

> <PUBCHEM_MOLECULAR_FORMULA>
C19H22N4O3S

> <PUBCHEM_MOLECULAR_WEIGHT>
386.46798

> <PUBCHEM_MONOISOTOPIC_WEIGHT>
386.141262

> <PUBCHEM_OPENEYE_CAN_SMILES>
CCOC(=O)N1CCN(CC1)C(=O)CSC2=NN=C(C=C2)C3=CC=CC=C3

> <PUBCHEM_OPENEYE_ISO_SMILES>
CCOC(=O)N1CCN(CC1)C(=O)CSC2=NN=C(C=C2)C3=CC=CC=C3

> <PUBCHEM_TOTAL_CHARGE>
0

> <PUBCHEM_XLOGP3_AA>
1.9

$$$$
Written by BCL::WriteToMDL,3127400
MBcorina  10171218483D 1   1.00000     0.00000 
CORINA 3.49 0026  01.06.2011
 48 50  0  0  0  0  0  0  0  0999 V2000
   -1.3156   -0.2819    2.4735 Br  0  0  0  1  0  1  0  0  0  0  0  0
   -0.2339    1.8180   -0.2354 S   0  0  0  1  0  4  0  0  0  0  0  0
   -5.2058   -3.6698   -1.7978 S   0  0  0  1  0  1  0  0  0  0  0  0
   -8.3257   -0.5228    0.7447 O   0  0  0  1  0  2  0  0  0  0  0  0
   -0.1193    0.3006   -0.2658 O   0  0  0  1  0  2  0  0  0  0  0  0
   -1.1357   -0.2855   -2.7541 O   0  0  0  1  0  2  0  0  0  0  0  0
    1.0919    2.3223   -0.3207 O   0  0  0  1  0  1  0  0  0  0  0  0
   -1.2571    2.1617   -1.1595 O   0  0  0  1  0  1  0  0  0  0  0  0
   -6.0902   -1.9509    0.0237 N   0  0  0  1  0  3  0  0  0  0  0  0
   -7.4114   -2.5798   -0.1327 C   0  0  0  1  0  4  0  0  0  0  0  0
   -5.9506   -0.8726    1.0152 C   0  0  0  1  0  4  0  0  0  0  0  0
   -7.0656    0.1518    0.7757 C   0  0  0  1  0  4  0  0  0  0  0  0
   -8.4553   -1.4723   -0.3163 C   0  0  0  1  0  4  0  0  0  0  0  0
   -5.0391   -2.3512   -0.7188 C   0  0  0  1  0  3  0  0  0  0  0  0
   -3.7457   -1.6535   -0.6018 C   0  0  0  1  0  3  0  0  0  0  0  0
   -3.0381   -1.2923   -1.7518 C   0  0  0  1  0  3  0  0  0  0  0  0
   -3.2266   -1.3474    0.6592 C   0  0  0  1  0  3  0  0  0  0  0  0
   -1.8263   -0.6386   -1.6369 C   0  0  0  1  0  3  0  0  0  0  0  0
   -1.3113   -0.3414   -0.3766 C   0  0  0  1  0  3  0  0  0  0  0  0
   -2.0166   -0.6953    0.7665 C   0  0  0  1  0  3  0  0  0  0  0  0
   -0.8340    2.2639    1.3601 C   0  0  0  1  0  3  0  0  0  0  0  0
   -1.7225   -0.6219   -4.0129 C   0  0  0  1  0  4  0  0  0  0  0  0
    0.0556    2.5157    2.3877 C   0  0  0  1  0  3  0  0  0  0  0  0
   -2.1944    2.3674    1.5828 C   0  0  0  1  0  3  0  0  0  0  0  0
   -0.8081   -0.1487   -5.1446 C   0  0  0  1  0  4  0  0  0  0  0  0
   -0.4152    2.8654    3.6395 C   0  0  0  1  0  3  0  0  0  0  0  0
   -2.6653    2.7172    2.8345 C   0  0  0  1  0  3  0  0  0  0  0  0
   -1.7757    2.9638    3.8635 C   0  0  0  1  0  3  0  0  0  0  0  0
   -6.0400   -1.2843    2.0204 H   0  0  0  1  0  1  0  0  0  0  0  0
   -4.9793   -0.3915    0.9000 H   0  0  0  1  0  1  0  0  0  0  0  0
   -7.4075   -3.2292   -1.0081 H   0  0  0  1  0  1  0  0  0  0  0  0
   -7.6479   -3.1634    0.7570 H   0  0  0  1  0  1  0  0  0  0  0  0
   -6.8988    0.6556   -0.1763 H   0  0  0  1  0  1  0  0  0  0  0  0
   -7.0652    0.8855    1.5818 H   0  0  0  1  0  1  0  0  0  0  0  0
   -9.4547   -1.9069   -0.2958 H   0  0  0  1  0  1  0  0  0  0  0  0
   -8.2936   -0.9743   -1.2723 H   0  0  0  1  0  1  0  0  0  0  0  0
   -3.4375   -1.5241   -2.7280 H   0  0  0  1  0  1  0  0  0  0  0  0
   -3.7733   -1.6212    1.5494 H   0  0  0  1  0  1  0  0  0  0  0  0
   -1.8505   -1.7025   -4.0769 H   0  0  0  1  0  1  0  0  0  0  0  0
   -2.6936   -0.1351   -4.1028 H   0  0  0  1  0  1  0  0  0  0  0  0
    1.1186    2.4388    2.2127 H   0  0  0  1  0  1  0  0  0  0  0  0
   -2.8893    2.1753    0.7787 H   0  0  0  1  0  1  0  0  0  0  0  0
   -1.2556   -0.4052   -6.1047 H   0  0  0  1  0  1  0  0  0  0  0  0
   -0.6801    0.9319   -5.0805 H   0  0  0  1  0  1  0  0  0  0  0  0
    0.1630   -0.6355   -5.0547 H   0  0  0  1  0  1  0  0  0  0  0  0
    0.2798    3.0615    4.4425 H   0  0  0  1  0  1  0  0  0  0  0  0
   -3.7281    2.7984    3.0084 H   0  0  0  1  0  1  0  0  0  0  0  0
   -2.1436    3.2368    4.8415 H   0  0  0  1  0  1  0  0  0  0  0  0
  1 20  1  0  0  0  0
  2  5  1  0  0  0  0
  2  7  2  0  0  0  0
  2  8  2  0  0  0  0
  2 21  1  0  0  0  0
  3 14  2  0  0  0  0
  4 12  1  0  0  0  0
  4 13  1  0  0  0  0
  5 19  1  0  0  0  0
  6 18  1  0  0  0  0
  6 22  1  0  0  0  0
  9 10  1  0  0  0  0
  9 11  1  0  0  0  0
  9 14  1  0  0  0  0
 10 13  1  0  0  0  0
 10 31  1  0  0  0  0
 10 32  1  0  0  0  0
 11 12  1  0  0  0  0
 11 29  1  0  0  0  0
 11 30  1  0  0  0  0
 12 33  1  0  0  0  0
 12 34  1  0  0  0  0
 13 35  1  0  0  0  0
 13 36  1  0  0  0  0
 14 15  1  0  0  0  0
 15 16  2  0  0  0  0
 15 17  1  0  0  0  0
 16 18  1  0  0  0  0
 16 37  1  0  0  0  0
 17 20  2  0  0  0  0
 17 38  1  0  0  0  0
 18 19  2  0  0  0  0
 19 20  1  0  0  0  0
 21 23  2  0  0  0  0
 21 24  1  0  0  0  0
 22 25  1  0  0  0  0
 22 39  1  0  0  0  0
 22 40  1  0  0  0  0
 23 26  1  0  0  0  0
 23 41  1  0  0  0  0
 24 27  2  0  0  0  0
 24 42  1  0  0  0  0
 25 43  1  0  0  0  0
 25 44  1  0  0  0  0
 25 45  1  0  0  0  0
 26 28  2  0  0  0  0
 26 46  1  0  0  0  0
 27 28  1  0  0  0  0
 27 47  1  0  0  0  0
 28 48  1  0  0  0  0
M  END
> <Activity>
4.559

> <Mapped(file=504701.csv.activities,property=Cached(PUBCHEM_COMPOUND_CID))>
4.559

> <PUBCHEM_ATOM_DEF_STEREO_COUNT>
0

> <PUBCHEM_ATOM_UDEF_STEREO_COUNT>
0

> <PUBCHEM_BONDANNOTATIONS>
15  16  8
15  17  8
16  18  8
17  20  8
18  19  8
19  20  8
21  23  8
21  24  8
23  26  8
24  27  8
26  28  8
27  28  8

> <PUBCHEM_BOND_DEF_STEREO_COUNT>
0

> <PUBCHEM_BOND_UDEF_STEREO_COUNT>
0

> <PUBCHEM_CACTVS_COMPLEXITY>
614

> <PUBCHEM_CACTVS_HBOND_ACCEPTOR>
6

> <PUBCHEM_CACTVS_HBOND_DONOR>
0

> <PUBCHEM_CACTVS_ROTATABLE_BOND>
6

> <PUBCHEM_CACTVS_SUBSKEYS>
AAADceB6OABgEAAAAAAAAAAAAAAAAAAAAAA8YIAAAAAAAAABQAAAHgRAAAABrATh2AYyB4MABAKEAiBCAHDCCEAgIAwIiBgOjKgPJiKEsRuHOCrkwBGaqhew0BIOIAABEIAARABAAAIhAACIAAAAAAAAAA==

> <PUBCHEM_CACTVS_TAUTO_COUNT>
1

> <PUBCHEM_CACTVS_TPSA>
106

> <PUBCHEM_COMPONENT_COUNT>
1

> <PUBCHEM_COMPOUND_CANONICALIZED>
1

> <PUBCHEM_COMPOUND_CID>
3127400

> <PUBCHEM_COORDINATE_TYPE>
1
5
255

> <PUBCHEM_EXACT_MASS>
484.996627

> <PUBCHEM_HEAVY_ATOM_COUNT>
28

> <PUBCHEM_ISOTOPIC_ATOM_COUNT>
0

> <PUBCHEM_IUPAC_CAS_NAME>
benzenesulfonic acid [2-bromo-6-ethoxy-4-[4-morpholinyl(sulfanylidene)methyl]phenyl] ester

> <PUBCHEM_IUPAC_INCHI>
InChI=1S/C19H20BrNO5S2/c1-2-25-17-13-14(19(27)21-8-10-24-11-9-21)12-16(20)18(17)26-28(22,23)15-6-4-3-5-7-15/h3-7,12-13H,2,8-11H2,1H3

> <PUBCHEM_IUPAC_INCHIKEY>
DYJJXSMRDJNTNI-UHFFFAOYSA-N

> <PUBCHEM_IUPAC_NAME>
[2-bromo-6-ethoxy-4-(morpholine-4-carbothioyl)phenyl] benzenesulfonate

> <PUBCHEM_IUPAC_OPENEYE_NAME>
[2-bromo-6-ethoxy-4-(morpholine-4-carbothioyl)phenyl] benzenesulfonate

> <PUBCHEM_IUPAC_SYSTEMATIC_NAME>
(2-bromanyl-6-ethoxy-4-morpholin-4-ylcarbothioyl-phenyl) benzenesulfonate

> <PUBCHEM_IUPAC_TRADITIONAL_NAME>
benzenesulfonic acid [2-bromo-6-ethoxy-4-(morpholine-4-carbothioyl)phenyl] ester

> <PUBCHEM_MOLECULAR_FORMULA>
C19H20BrNO5S2

> <PUBCHEM_MOLECULAR_WEIGHT>
486.3998

> <PUBCHEM_MONOISOTOPIC_WEIGHT>
484.996627

> <PUBCHEM_OPENEYE_CAN_SMILES>
CCOC1=C(C(=CC(=C1)C(=S)N2CCOCC2)Br)OS(=O)(=O)C3=CC=CC=C3

> <PUBCHEM_OPENEYE_ISO_SMILES>
CCOC1=C(C(=CC(=C1)C(=S)N2CCOCC2)Br)OS(=O)(=O)C3=CC=CC=C3

> <PUBCHEM_TOTAL_CHARGE>
0

> <PUBCHEM_XLOGP3_AA>
3.7

$$$$
Written by BCL::WriteToMDL,3141919
MBcorina  10171218483D 1   1.00000     0.00000 
CORINA 3.49 0026  01.06.2011
 31 33  0  0  0  0  0  0  0  0999 V2000
   -0.0218    1.7577    0.0117 S   0  0  0  1  0  2  0  0  0  0  0  0
    0.0864   -2.7390   -0.0126 N   0  0  0  1  0  2  0  0  0  0  0  0
    1.1489   -0.6682   -0.0125 N   0  0  0  1  0  2  0  0  0  0  0  0
    2.1504    4.6743    0.0066 N   0  0  0  1  0  1  0  0  0  0  0  0
   -1.2055   -0.7480    0.0100 C   0  0  0  1  0  3  0  0  0  0  0  0
   -1.1234   -2.1624    0.0021 C   0  0  0  1  0  3  0  0  0  0  0  0
    1.1797   -1.9992   -0.0195 C   0  0  0  1  0  3  0  0  0  0  0  0
    0.0021   -0.0041    0.0020 C   0  0  0  1  0  3  0  0  0  0  0  0
    2.4973   -2.6792   -0.0358 C   0  0  0  1  0  3  0  0  0  0  0  0
   -2.4581   -0.1274    0.0249 C   0  0  0  1  0  3  0  0  0  0  0  0
   -2.3040   -2.9179    0.0094 C   0  0  0  1  0  3  0  0  0  0  0  0
   -3.5881   -0.8928    0.0325 C   0  0  0  1  0  3  0  0  0  0  0  0
   -3.5102   -2.2820    0.0239 C   0  0  0  1  0  3  0  0  0  0  0  0
    3.6719   -1.9286   -0.0434 C   0  0  0  1  0  3  0  0  0  0  0  0
    2.5662   -4.0714   -0.0376 C   0  0  0  1  0  3  0  0  0  0  0  0
    4.8954   -2.5669   -0.0581 C   0  0  0  1  0  3  0  0  0  0  0  0
    3.7953   -4.6988   -0.0523 C   0  0  0  1  0  3  0  0  0  0  0  0
    4.9575   -3.9488   -0.0652 C   0  0  0  1  0  3  0  0  0  0  0  0
    1.7562    2.0963   -0.0035 C   0  0  0  1  0  4  0  0  0  0  0  0
    1.9787    3.5514    0.0022 C   0  0  0  1  0  2  0  0  0  0  0  0
   -2.5311    0.9501    0.0314 H   0  0  0  1  0  1  0  0  0  0  0  0
   -2.2586   -3.9970    0.0031 H   0  0  0  1  0  1  0  0  0  0  0  0
   -4.5559   -0.4136    0.0443 H   0  0  0  1  0  1  0  0  0  0  0  0
   -4.4190   -2.8655    0.0291 H   0  0  0  1  0  1  0  0  0  0  0  0
    3.6246   -0.8497   -0.0383 H   0  0  0  1  0  1  0  0  0  0  0  0
    1.6594   -4.6580   -0.0272 H   0  0  0  1  0  1  0  0  0  0  0  0
    5.8061   -1.9864   -0.0644 H   0  0  0  1  0  1  0  0  0  0  0  0
    3.8498   -5.7774   -0.0537 H   0  0  0  1  0  1  0  0  0  0  0  0
    5.9172   -4.4440   -0.0770 H   0  0  0  1  0  1  0  0  0  0  0  0
    2.2177    1.6547    0.8798 H   0  0  0  1  0  1  0  0  0  0  0  0
    2.2007    1.6643   -0.9001 H   0  0  0  1  0  1  0  0  0  0  0  0
  1  8  1  0  0  0  0
  1 19  1  0  0  0  0
  2  6  1  0  0  0  0
  2  7  2  0  0  0  0
  3  7  1  0  0  0  0
  3  8  2  0  0  0  0
  4 20  3  0  0  0  0
  5  6  1  0  0  0  0
  5  8  1  0  0  0  0
  5 10  2  0  0  0  0
  6 11  2  0  0  0  0
  7  9  1  0  0  0  0
  9 14  2  0  0  0  0
  9 15  1  0  0  0  0
 10 12  1  0  0  0  0
 10 21  1  0  0  0  0
 11 13  1  0  0  0  0
 11 22  1  0  0  0  0
 12 13  2  0  0  0  0
 12 23  1  0  0  0  0
 13 24  1  0  0  0  0
 14 16  1  0  0  0  0
 14 25  1  0  0  0  0
 15 17  2  0  0  0  0
 15 26  1  0  0  0  0
 16 18  2  0  0  0  0
 16 27  1  0  0  0  0
 17 18  1  0  0  0  0
 17 28  1  0  0  0  0
 18 29  1  0  0  0  0
 19 20  1  0  0  0  0
 19 30  1  0  0  0  0
 19 31  1  0  0  0  0
M  END
> <Activity>
2.841

> <Mapped(file=504701.csv.activities,property=Cached(PUBCHEM_COMPOUND_CID))>
2.841

> <PUBCHEM_ATOM_DEF_STEREO_COUNT>
0

> <PUBCHEM_ATOM_UDEF_STEREO_COUNT>
0

> <PUBCHEM_BONDANNOTATIONS>
10  12  8
11  13  8
12  13  8
14  16  8
15  17  8
16  18  8
17  18  8
2  6  8
2  7  8
3  7  8
3  8  8
5  10  8
5  6  8
5  8  8
6  11  8
9  14  8
9  15  8

> <PUBCHEM_BOND_DEF_STEREO_COUNT>
0

> <PUBCHEM_BOND_UDEF_STEREO_COUNT>
0

> <PUBCHEM_CACTVS_COMPLEXITY>
358

> <PUBCHEM_CACTVS_HBOND_ACCEPTOR>
2

> <PUBCHEM_CACTVS_HBOND_DONOR>
0

> <PUBCHEM_CACTVS_ROTATABLE_BOND>
3

> <PUBCHEM_CACTVS_SUBSKEYS>
AAADccB7AABAAAAAAAAAAAAAAAAAAAAAAAA8YIAAAAAAAACx9AAAHAQAAAAADAiFXwCx0fYIEAiwByZiZACC0ClhCrAJmDAwZJiIKKLg2dGEJAxogALoyCcQgAAOAAAAAAACAAAAAAAAAAQAAAAAAAAAAA==

> <PUBCHEM_CACTVS_TAUTO_COUNT>
1

> <PUBCHEM_CACTVS_TPSA>
74.9

> <PUBCHEM_COMPONENT_COUNT>
1

> <PUBCHEM_COMPOUND_CANONICALIZED>
1

> <PUBCHEM_COMPOUND_CID>
3141919

> <PUBCHEM_COORDINATE_TYPE>
1
5
255

> <PUBCHEM_EXACT_MASS>
277.067368

> <PUBCHEM_HEAVY_ATOM_COUNT>
20

> <PUBCHEM_ISOTOPIC_ATOM_COUNT>
0

> <PUBCHEM_IUPAC_CAS_NAME>
2-[(2-phenyl-4-quinazolinyl)thio]acetonitrile

> <PUBCHEM_IUPAC_INCHI>
InChI=1S/C16H11N3S/c17-10-11-20-16-13-8-4-5-9-14(13)18-15(19-16)12-6-2-1-3-7-12/h1-9H,11H2

> <PUBCHEM_IUPAC_INCHIKEY>
JBVMLMHPHCOLAG-UHFFFAOYSA-N

> <PUBCHEM_IUPAC_NAME>
2-(2-phenylquinazolin-4-yl)sulfanylacetonitrile

> <PUBCHEM_IUPAC_OPENEYE_NAME>
2-(2-phenylquinazolin-4-yl)sulfanylacetonitrile

> <PUBCHEM_IUPAC_SYSTEMATIC_NAME>
2-(2-phenylquinazolin-4-yl)sulfanylethanenitrile

> <PUBCHEM_IUPAC_TRADITIONAL_NAME>
2-[(2-phenylquinazolin-4-yl)thio]acetonitrile

> <PUBCHEM_MOLECULAR_FORMULA>
C16H11N3S

> <PUBCHEM_MOLECULAR_WEIGHT>
277.34364

> <PUBCHEM_MONOISOTOPIC_WEIGHT>
277.067368

> <PUBCHEM_OPENEYE_CAN_SMILES>
C1=CC=C(C=C1)C2=NC3=CC=CC=C3C(=N2)SCC#N

> <PUBCHEM_OPENEYE_ISO_SMILES>
C1=CC=C(C=C1)C2=NC3=CC=CC=C3C(=N2)SCC#N

> <PUBCHEM_TOTAL_CHARGE>
0

> <PUBCHEM_XLOGP3>
4.1

$$$$
Written by BCL::WriteToMDL,24979750
MBcorina  10171218483D 1   1.00000     0.00000 
CORINA 3.49 0026  01.06.2011
 63 66  0  0  0  0  0  0  0  0999 V2000
   -4.0115    0.0743    1.6184 S   0  0  0  1  0  2  0  0  0  0  0  0
   -8.6420   -3.3982   -4.5777 S   0  0  0  1  0  4  0  0  0  0  0  0
   -0.0234   -3.5935    1.8257 O   0  0  0  1  0  2  0  0  0  0  0  0
   -4.0210   -1.0042   -3.4631 O   0  0  0  1  0  1  0  0  0  0  0  0
   -8.4319   -2.3062   -5.4624 O   0  0  0  1  0  1  0  0  0  0  0  0
   -9.9202   -3.7483   -4.0650 O   0  0  0  1  0  1  0  0  0  0  0  0
   -1.4965   -1.5448    0.5926 N   0  0  0  1  0  3  0  0  0  0  0  0
   -3.5598   -1.2133   -1.3008 N   0  0  0  1  0  3  0  0  0  0  0  0
   -8.0634   -4.7438   -5.3502 N   0  0  0  1  0  3  0  0  0  0  0  0
   -1.6767   -0.2484   -0.0743 C   0  0  0  1  0  4  0  0  0  0  0  0
   -0.9565   -1.3692    1.9487 C   0  0  0  1  0  4  0  0  0  0  0  0
   -0.6324   -2.4303   -0.2015 C   0  0  0  1  0  4  0  0  0  0  0  0
   -2.3085   -0.4664   -1.4506 C   0  0  0  1  0  4  0  0  0  0  0  0
   -0.8411   -2.7367    2.6273 C   0  0  0  1  0  4  0  0  0  0  0  0
   -0.5202   -3.7871    0.4986 C   0  0  0  1  0  4  0  0  0  0  0  0
   -2.5785    0.6246    0.7599 C   0  0  0  1  0  3  0  0  0  0  0  0
   -2.4123    1.9329    0.9594 C   0  0  0  1  0  3  0  0  0  0  0  0
   -4.3482   -1.4292   -2.3723 C   0  0  0  1  0  3  0  0  0  0  0  0
   -3.3697    2.5265    1.7639 C   0  0  0  1  0  3  0  0  0  0  0  0
   -4.3133    1.7001    2.2177 C   0  0  0  1  0  3  0  0  0  0  0  0
   -5.6110   -2.1831   -2.2211 C   0  0  0  1  0  3  0  0  0  0  0  0
   -7.6067   -3.1131   -3.1808 C   0  0  0  1  0  3  0  0  0  0  0  0
   -6.4297   -2.4084   -3.3287 C   0  0  0  1  0  3  0  0  0  0  0  0
   -5.9869   -2.6776   -0.9710 C   0  0  0  1  0  3  0  0  0  0  0  0
   -7.9759   -3.5959   -1.9381 C   0  0  0  1  0  3  0  0  0  0  0  0
   -8.5813   -6.0036   -5.0407 C   0  0  0  1  0  3  0  0  0  0  0  0
   -7.1661   -3.3805   -0.8368 C   0  0  0  1  0  3  0  0  0  0  0  0
   -7.0084   -4.6130   -6.3582 C   0  0  0  1  0  4  0  0  0  0  0  0
   -8.5585   -7.0179   -5.9896 C   0  0  0  1  0  3  0  0  0  0  0  0
   -9.1149   -6.2466   -3.7815 C   0  0  0  1  0  3  0  0  0  0  0  0
   -9.6067   -8.4993   -4.4275 C   0  0  0  1  0  3  0  0  0  0  0  0
   -9.0710   -8.2624   -5.6801 C   0  0  0  1  0  3  0  0  0  0  0  0
   -9.6257   -7.4935   -3.4786 C   0  0  0  1  0  3  0  0  0  0  0  0
  -10.1658   -9.8584   -4.0937 C   0  0  0  1  0  4  0  0  0  0  0  0
   -0.7081    0.2374   -0.1920 H   0  0  0  1  0  1  0  0  0  0  0  0
   -1.0644   -2.5669   -1.1929 H   0  0  0  1  0  1  0  0  0  0  0  0
    0.3583   -1.9852   -0.2936 H   0  0  0  1  0  1  0  0  0  0  0  0
    0.0290   -0.9071    1.8910 H   0  0  0  1  0  1  0  0  0  0  0  0
   -1.6250   -0.7313    2.5268 H   0  0  0  1  0  1  0  0  0  0  0  0
   -1.6213   -1.0313   -2.0805 H   0  0  0  1  0  1  0  0  0  0  0  0
   -2.5148    0.4991   -1.9127 H   0  0  0  1  0  1  0  0  0  0  0  0
    0.1649   -4.4277   -0.0567 H   0  0  0  1  0  1  0  0  0  0  0  0
   -1.5031   -4.2563    0.5428 H   0  0  0  1  0  1  0  0  0  0  0  0
   -1.8333   -3.1753    2.7334 H   0  0  0  1  0  1  0  0  0  0  0  0
   -0.3880   -2.6175    3.6115 H   0  0  0  1  0  1  0  0  0  0  0  0
   -3.8209   -1.5526   -0.4303 H   0  0  0  1  0  1  0  0  0  0  0  0
   -1.5927    2.4871    0.5264 H   0  0  0  1  0  1  0  0  0  0  0  0
   -3.3537    3.5788    2.0061 H   0  0  0  1  0  1  0  0  0  0  0  0
   -5.1369    1.9857    2.8553 H   0  0  0  1  0  1  0  0  0  0  0  0
   -6.1427   -2.0317   -4.2993 H   0  0  0  1  0  1  0  0  0  0  0  0
   -5.3556   -2.5105   -0.1108 H   0  0  0  1  0  1  0  0  0  0  0  0
   -8.8983   -4.1466   -1.8276 H   0  0  0  1  0  1  0  0  0  0  0  0
   -7.4578   -3.7639    0.1298 H   0  0  0  1  0  1  0  0  0  0  0  0
   -6.0339   -4.6939   -5.8768 H   0  0  0  1  0  1  0  0  0  0  0  0
   -7.1142   -5.4048   -7.0998 H   0  0  0  1  0  1  0  0  0  0  0  0
   -7.0923   -3.6429   -6.8481 H   0  0  0  1  0  1  0  0  0  0  0  0
   -8.1409   -6.8333   -6.9684 H   0  0  0  1  0  1  0  0  0  0  0  0
   -9.1301   -5.4616   -3.0400 H   0  0  0  1  0  1  0  0  0  0  0  0
   -9.0536   -9.0514   -6.4174 H   0  0  0  1  0  1  0  0  0  0  0  0
  -10.0408   -7.6832   -2.4998 H   0  0  0  1  0  1  0  0  0  0  0  0
   -9.3770  -10.4828   -3.6744 H   0  0  0  1  0  1  0  0  0  0  0  0
  -10.9702   -9.7516   -3.3659 H   0  0  0  1  0  1  0  0  0  0  0  0
  -10.5547  -10.3237   -4.9995 H   0  0  0  1  0  1  0  0  0  0  0  0
  1 16  1  0  0  0  0
  1 20  1  0  0  0  0
  2  5  2  0  0  0  0
  2  6  2  0  0  0  0
  2  9  1  0  0  0  0
  2 22  1  0  0  0  0
  3 14  1  0  0  0  0
  3 15  1  0  0  0  0
  4 18  2  0  0  0  0
  7 10  1  0  0  0  0
  7 11  1  0  0  0  0
  7 12  1  0  0  0  0
  8 13  1  0  0  0  0
  8 18  1  0  0  0  0
  8 46  1  0  0  0  0
  9 26  1  0  0  0  0
  9 28  1  0  0  0  0
 10 13  1  0  0  0  0
 10 16  1  0  0  0  0
 10 35  1  0  0  0  0
 11 14  1  0  0  0  0
 11 38  1  0  0  0  0
 11 39  1  0  0  0  0
 12 15  1  0  0  0  0
 12 36  1  0  0  0  0
 12 37  1  0  0  0  0
 13 40  1  0  0  0  0
 13 41  1  0  0  0  0
 14 44  1  0  0  0  0
 14 45  1  0  0  0  0
 15 42  1  0  0  0  0
 15 43  1  0  0  0  0
 16 17  2  0  0  0  0
 17 19  1  0  0  0  0
 17 47  1  0  0  0  0
 18 21  1  0  0  0  0
 19 20  2  0  0  0  0
 19 48  1  0  0  0  0
 20 49  1  0  0  0  0
 21 23  2  0  0  0  0
 21 24  1  0  0  0  0
 22 23  1  0  0  0  0
 22 25  2  0  0  0  0
 23 50  1  0  0  0  0
 24 27  2  0  0  0  0
 24 51  1  0  0  0  0
 25 27  1  0  0  0  0
 25 52  1  0  0  0  0
 26 29  2  0  0  0  0
 26 30  1  0  0  0  0
 27 53  1  0  0  0  0
 28 54  1  0  0  0  0
 28 55  1  0  0  0  0
 28 56  1  0  0  0  0
 29 32  1  0  0  0  0
 29 57  1  0  0  0  0
 30 33  2  0  0  0  0
 30 58  1  0  0  0  0
 31 32  2  0  0  0  0
 31 33  1  0  0  0  0
 31 34  1  0  0  0  0
 32 59  1  0  0  0  0
 33 60  1  0  0  0  0
 34 61  1  0  0  0  0
 34 62  1  0  0  0  0
 34 63  1  0  0  0  0
M  END
> <Activity>
0.71475

> <Mapped(file=504701.csv.activities,property=Cached(PUBCHEM_COMPOUND_CID))>
0.71475

> <PUBCHEM_ATOM_DEF_STEREO_COUNT>
0

> <PUBCHEM_ATOM_UDEF_STEREO_COUNT>
1

> <PUBCHEM_BONDANNOTATIONS>
1  16  8
1  20  8
10  13  3
16  17  8
17  19  8
19  20  8
21  23  8
21  24  8
22  23  8
22  25  8
24  27  8
25  27  8
26  29  8
26  30  8
29  32  8
30  33  8
31  32  8
31  33  8

> <PUBCHEM_BOND_DEF_STEREO_COUNT>
0

> <PUBCHEM_BOND_UDEF_STEREO_COUNT>
0

> <PUBCHEM_CACTVS_COMPLEXITY>
761

> <PUBCHEM_CACTVS_HBOND_ACCEPTOR>
7

> <PUBCHEM_CACTVS_HBOND_DONOR>
1

> <PUBCHEM_CACTVS_ROTATABLE_BOND>
8

> <PUBCHEM_CACTVS_SUBSKEYS>
AAADceB7OABgAAAAAAAAAAAAAAAAASAAAAA8YIAAAAAAAAAB0AAAHgQQQAAADCjl2AaywYPABAqMAiVSUHDDAJAlChBIiJkIZMgKYDLglZGXIQhglgD4yYcYiACOCAAAgAAAAAAQAAEAAAAAAAAAAAAAAA==

> <PUBCHEM_CACTVS_TAUTO_COUNT>
2

> <PUBCHEM_CACTVS_TPSA>
116

> <PUBCHEM_COMPONENT_COUNT>
1

> <PUBCHEM_COMPOUND_CANONICALIZED>
1

> <PUBCHEM_COMPOUND_CID>
24979750

> <PUBCHEM_COORDINATE_TYPE>
1
5
255

> <PUBCHEM_EXACT_MASS>
499.159948

> <PUBCHEM_HEAVY_ATOM_COUNT>
34

> <PUBCHEM_ISOTOPIC_ATOM_COUNT>
0

> <PUBCHEM_IUPAC_CAS_NAME>
3-[methyl-(4-methylphenyl)sulfamoyl]-N-[2-(4-morpholinyl)-2-thiophen-2-ylethyl]benzamide

> <PUBCHEM_IUPAC_INCHI>
InChI=1S/C25H29N3O4S2/c1-19-8-10-21(11-9-19)27(2)34(30,31)22-6-3-5-20(17-22)25(29)26-18-23(24-7-4-16-33-24)28-12-14-32-15-13-28/h3-11,16-17,23H,12-15,18H2,1-2H3,(H,26,29)

> <PUBCHEM_IUPAC_INCHIKEY>
JPMSNHIXZAXXEC-UHFFFAOYSA-N

> <PUBCHEM_IUPAC_NAME>
3-[methyl-(4-methylphenyl)sulfamoyl]-N-(2-morpholin-4-yl-2-thiophen-2-ylethyl)benzamide

> <PUBCHEM_IUPAC_OPENEYE_NAME>
3-[methyl(p-tolyl)sulfamoyl]-N-[2-morpholino-2-(2-thienyl)ethyl]benzamide

> <PUBCHEM_IUPAC_SYSTEMATIC_NAME>
3-[methyl-(4-methylphenyl)sulfamoyl]-N-(2-morpholin-4-yl-2-thiophen-2-yl-ethyl)benzamide

> <PUBCHEM_IUPAC_TRADITIONAL_NAME>
3-[methyl(p-tolyl)sulfamoyl]-N-[2-morpholino-2-(2-thienyl)ethyl]benzamide

> <PUBCHEM_MOLECULAR_FORMULA>
C25H29N3O4S2

> <PUBCHEM_MOLECULAR_WEIGHT>
499.64546

> <PUBCHEM_MONOISOTOPIC_WEIGHT>
499.159948

> <PUBCHEM_OPENEYE_CAN_SMILES>
CC1=CC=C(C=C1)N(C)S(=O)(=O)C2=CC=CC(=C2)C(=O)NCC(C3=CC=CS3)N4CCOCC4

> <PUBCHEM_OPENEYE_ISO_SMILES>
CC1=CC=C(C=C1)N(C)S(=O)(=O)C2=CC=CC(=C2)C(=O)NCC(C3=CC=CS3)N4CCOCC4

> <PUBCHEM_TOTAL_CHARGE>
0

> <PUBCHEM_XLOGP3_AA>
3.2

$$$$
Written by BCL::WriteToMDL,3130913
MBcorina  10171218483D 1   1.00000     0.00000 
CORINA 3.49 0026  01.06.2011
 47 49  0  0  0  0  0  0  0  0999 V2000
    1.3330   -5.1213   -1.4500 Cl  0  0  0  1  0  1  0  0  0  0  0  0
   -4.4739   -2.6084    0.9695 S   0  0  0  1  0  2  0  0  0  0  0  0
    0.9964   -0.9881   -3.6895 S   0  0  0  1  0  2  0  0  0  0  0  0
   -0.3140   -1.2524    2.7986 F   0  0  0  1  0  1  0  0  0  0  0  0
    1.3675   -1.6918    1.3158 F   0  0  0  1  0  1  0  0  0  0  0  0
   -0.3906   -3.1376    1.5104 F   0  0  0  1  0  1  0  0  0  0  0  0
   -0.3785    0.3554    0.4890 O   0  0  0  1  0  2  0  0  0  0  0  0
   -2.3954   -0.5755   -1.7565 O   0  0  0  1  0  1  0  0  0  0  0  0
   -2.2115   -1.1362    0.6836 N   0  0  0  1  0  3  0  0  0  0  0  0
   -3.5026   -5.4356   -0.9128 N   0  0  0  1  0  1  0  0  0  0  0  0
   -0.4497   -1.6184   -0.9181 C   0  0  0  1  0  4  0  0  0  0  0  0
   -0.7636   -1.0204    0.4600 C   0  0  0  1  0  4  0  0  0  0  0  0
   -0.8337   -3.0997   -0.9092 C   0  0  0  1  0  4  0  0  0  0  0  0
   -2.2292   -3.2706   -0.3779 C   0  0  0  1  0  3  0  0  0  0  0  0
   -0.7642   -3.6421   -2.3135 C   0  0  0  1  0  3  0  0  0  0  0  0
   -1.2447   -0.8965   -1.9754 C   0  0  0  1  0  3  0  0  0  0  0  0
   -0.0090   -1.7920    1.5444 C   0  0  0  1  0  4  0  0  0  0  0  0
   -2.8405   -2.3196    0.3750 C   0  0  0  1  0  3  0  0  0  0  0  0
   -0.6517   -0.5932   -3.2208 C   0  0  0  1  0  3  0  0  0  0  0  0
    0.2013   -4.5753   -2.6479 C   0  0  0  1  0  3  0  0  0  0  0  0
   -1.6681   -3.2118   -3.2661 C   0  0  0  1  0  3  0  0  0  0  0  0
   -2.9393   -4.4779   -0.6762 C   0  0  0  1  0  2  0  0  0  0  0  0
    0.2645   -5.0726   -3.9371 C   0  0  0  1  0  3  0  0  0  0  0  0
   -1.6046   -3.7096   -4.5544 C   0  0  0  1  0  3  0  0  0  0  0  0
   -1.2685    0.0575   -4.2591 C   0  0  0  1  0  3  0  0  0  0  0  0
   -0.6366   -4.6372   -4.8906 C   0  0  0  1  0  3  0  0  0  0  0  0
   -4.7575   -1.0651    1.8716 C   0  0  0  1  0  4  0  0  0  0  0  0
   -0.4576    0.2212   -5.3536 C   0  0  0  1  0  3  0  0  0  0  0  0
    0.7807   -0.2750   -5.2243 C   0  0  0  1  0  3  0  0  0  0  0  0
   -6.1344   -1.0869    2.4838 C   0  0  0  1  0  3  0  0  0  0  0  0
   -6.2720   -1.0875    3.7866 C   0  0  0  1  0  3  0  0  0  0  0  0
    0.6155   -1.5181   -1.1262 H   0  0  0  1  0  1  0  0  0  0  0  0
   -0.1367   -3.6497   -0.2770 H   0  0  0  1  0  1  0  0  0  0  0  0
   -2.7150   -0.3909    1.0469 H   0  0  0  1  0  1  0  0  0  0  0  0
   -0.5717    0.8004    1.3256 H   0  0  0  1  0  1  0  0  0  0  0  0
   -2.4244   -2.4867   -3.0041 H   0  0  0  1  0  1  0  0  0  0  0  0
    1.0180   -5.8008   -4.1988 H   0  0  0  1  0  1  0  0  0  0  0  0
   -2.3117   -3.3735   -5.2984 H   0  0  0  1  0  1  0  0  0  0  0  0
   -2.2900    0.4059   -4.2189 H   0  0  0  1  0  1  0  0  0  0  0  0
   -0.5873   -5.0254   -5.8972 H   0  0  0  1  0  1  0  0  0  0  0  0
   -4.0112   -0.9622    2.6593 H   0  0  0  1  0  1  0  0  0  0  0  0
   -4.6789   -0.2228    1.1843 H   0  0  0  1  0  1  0  0  0  0  0  0
   -0.7927    0.7144   -6.2540 H   0  0  0  1  0  1  0  0  0  0  0  0
    1.5410   -0.2294   -5.9900 H   0  0  0  1  0  1  0  0  0  0  0  0
   -7.0077   -1.1021    1.8486 H   0  0  0  1  0  1  0  0  0  0  0  0
   -5.3987   -1.0723    4.4218 H   0  0  0  1  0  1  0  0  0  0  0  0
   -7.2587   -1.1031    4.2254 H   0  0  0  1  0  1  0  0  0  0  0  0
  1 20  1  0  0  0  0
  2 18  1  0  0  0  0
  2 27  1  0  0  0  0
  3 19  1  0  0  0  0
  3 29  1  0  0  0  0
  4 17  1  0  0  0  0
  5 17  1  0  0  0  0
  6 17  1  0  0  0  0
  7 12  1  0  0  0  0
  7 35  1  0  0  0  0
  8 16  2  0  0  0  0
  9 12  1  0  0  0  0
  9 18  1  0  0  0  0
  9 34  1  0  0  0  0
 10 22  3  0  0  0  0
 11 12  1  0  0  0  0
 11 13  1  0  0  0  0
 11 16  1  0  0  0  0
 11 32  1  0  0  0  0
 12 17  1  0  0  0  0
 13 14  1  0  0  0  0
 13 15  1  0  0  0  0
 13 33  1  0  0  0  0
 14 18  2  0  0  0  0
 14 22  1  0  0  0  0
 15 20  1  0  0  0  0
 15 21  2  0  0  0  0
 16 19  1  0  0  0  0
 19 25  2  0  0  0  0
 20 23  2  0  0  0  0
 21 24  1  0  0  0  0
 21 36  1  0  0  0  0
 23 26  1  0  0  0  0
 23 37  1  0  0  0  0
 24 26  2  0  0  0  0
 24 38  1  0  0  0  0
 25 28  1  0  0  0  0
 25 39  1  0  0  0  0
 26 40  1  0  0  0  0
 27 30  1  0  0  0  0
 27 41  1  0  0  0  0
 27 42  1  0  0  0  0
 28 29  2  0  0  0  0
 28 43  1  0  0  0  0
 29 44  1  0  0  0  0
 30 31  2  0  0  0  0
 30 45  1  0  0  0  0
 31 46  1  0  0  0  0
 31 47  1  0  0  0  0
M  END
> <Activity>
0.40488

> <Mapped(file=504701.csv.activities,property=Cached(PUBCHEM_COMPOUND_CID))>
0.40488

> <PUBCHEM_ATOM_DEF_STEREO_COUNT>
0

> <PUBCHEM_ATOM_UDEF_STEREO_COUNT>
3

> <PUBCHEM_BONDANNOTATIONS>
11  16  3
13  15  3
15  20  8
15  21  8
19  25  8
20  23  8
21  24  8
23  26  8
24  26  8
25  28  8
28  29  8
3  19  8
3  29  8
12  7  3

> <PUBCHEM_BOND_DEF_STEREO_COUNT>
0

> <PUBCHEM_BOND_UDEF_STEREO_COUNT>
0

> <PUBCHEM_CACTVS_COMPLEXITY>
797

> <PUBCHEM_CACTVS_HBOND_ACCEPTOR>
9

> <PUBCHEM_CACTVS_HBOND_DONOR>
2

> <PUBCHEM_CACTVS_ROTATABLE_BOND>
6

> <PUBCHEM_CACTVS_SUBSKEYS>
AAADceB7MYBkAAAAAAAAAAAAAAAAASAAAAAwQAAAAAAAAAABwAAAHwYQCAAADQ6F2DCwAYLAAgicBqBSQAAjAIBkDRBIiBkAAskIoD6hlxCEYQAksAAoiY+YyOCOgAAAAAABAAAAAAAAAAIAAAAAAAAAAA==

> <PUBCHEM_CACTVS_TAUTO_COUNT>
2

> <PUBCHEM_CACTVS_TPSA>
127

> <PUBCHEM_COMPONENT_COUNT>
1

> <PUBCHEM_COMPOUND_CANONICALIZED>
1

> <PUBCHEM_COMPOUND_CID>
3130913

> <PUBCHEM_COORDINATE_TYPE>
1
5
255

> <PUBCHEM_EXACT_MASS>
484.029382

> <PUBCHEM_HEAVY_ATOM_COUNT>
31

> <PUBCHEM_ISOTOPIC_ATOM_COUNT>
0

> <PUBCHEM_IUPAC_CAS_NAME>
4-(2-chlorophenyl)-2-hydroxy-3-[oxo(thiophen-2-yl)methyl]-6-(prop-2-enylthio)-2-(trifluoromethyl)-3,4-dihydro-1H-pyridine-5-carbonitrile

> <PUBCHEM_IUPAC_INCHI>
InChI=1S/C21H16ClF3N2O2S2/c1-2-9-31-19-13(11-26)16(12-6-3-4-7-14(12)22)17(18(28)15-8-5-10-30-15)20(29,27-19)21(23,24)25/h2-8,10,16-17,27,29H,1,9H2

> <PUBCHEM_IUPAC_INCHIKEY>
NGWHSQAGOZMKNL-UHFFFAOYSA-N

> <PUBCHEM_IUPAC_NAME>
4-(2-chlorophenyl)-2-hydroxy-6-prop-2-enylsulfanyl-3-(thiophene-2-carbonyl)-2-(trifluoromethyl)-3,4-dihydro-1H-pyridine-5-carbonitrile

> <PUBCHEM_IUPAC_OPENEYE_NAME>
6-allylsulfanyl-4-(2-chlorophenyl)-2-hydroxy-3-(thiophene-2-carbonyl)-2-(trifluoromethyl)-3,4-dihydro-1H-pyridine-5-carbonitrile

> <PUBCHEM_IUPAC_SYSTEMATIC_NAME>
4-(2-chlorophenyl)-2-oxidanyl-6-prop-2-enylsulfanyl-3-thiophen-2-ylcarbonyl-2-(trifluoromethyl)-3,4-dihydro-1H-pyridine-5-carbonitrile

> <PUBCHEM_IUPAC_TRADITIONAL_NAME>
6-(allylthio)-4-(2-chlorophenyl)-2-hydroxy-3-(2-thenoyl)-2-(trifluoromethyl)-3,4-dihydro-1H-pyridine-5-carbonitrile

> <PUBCHEM_MOLECULAR_FORMULA>
C21H16ClF3N2O2S2

> <PUBCHEM_MOLECULAR_WEIGHT>
484.94215

> <PUBCHEM_MONOISOTOPIC_WEIGHT>
484.029382

> <PUBCHEM_OPENEYE_CAN_SMILES>
C=CCSC1=C(C(C(C(N1)(C(F)(F)F)O)C(=O)C2=CC=CS2)C3=CC=CC=C3Cl)C#N

> <PUBCHEM_OPENEYE_ISO_SMILES>
C=CCSC1=C(C(C(C(N1)(C(F)(F)F)O)C(=O)C2=CC=CS2)C3=CC=CC=C3Cl)C#N

> <PUBCHEM_TOTAL_CHARGE>
0

> <PUBCHEM_XLOGP3_AA>
6

$$$$
Written by BCL::WriteToMDL,976322
MBcorina  10171218483D 1   1.00000     0.00000 
CORINA 3.49 0026  01.06.2011
 29 31  0  0  0  0  0  0  0  0999 V2000
   -0.0218    1.7539    0.0117 S   0  0  0  1  0  2  0  0  0  0  0  0
   -4.5650   -3.2631    0.0280 O   0  0  0  1  0  2  0  0  0  0  0  0
   -2.0636   -4.4088   -0.0024 O   0  0  0  1  0  2  0  0  0  0  0  0
    1.2182   -0.4362   -0.0119 N   0  0  0  1  0  2  0  0  0  0  0  0
   -1.1994   -0.8646    0.0089 C   0  0  0  1  0  3  0  0  0  0  0  0
    0.0021   -0.0041    0.0020 C   0  0  0  1  0  3  0  0  0  0  0  0
    1.7395    1.7908   -0.0049 C   0  0  0  1  0  3  0  0  0  0  0  0
    2.2093    0.4721   -0.0165 C   0  0  0  1  0  3  0  0  0  0  0  0
   -1.0646   -2.2541    0.0001 C   0  0  0  1  0  3  0  0  0  0  0  0
   -2.4713   -0.2897    0.0299 C   0  0  0  1  0  3  0  0  0  0  0  0
   -2.1914   -3.0549    0.0065 C   0  0  0  1  0  3  0  0  0  0  0  0
   -3.4580   -2.4747    0.0217 C   0  0  0  1  0  3  0  0  0  0  0  0
    2.6367    2.8567   -0.0078 C   0  0  0  1  0  3  0  0  0  0  0  0
    3.6051    0.2583   -0.0305 C   0  0  0  1  0  3  0  0  0  0  0  0
   -3.5915   -1.0938    0.0362 C   0  0  0  1  0  3  0  0  0  0  0  0
    3.9926    2.6167   -0.0220 C   0  0  0  1  0  3  0  0  0  0  0  0
    4.4664    1.3127   -0.0327 C   0  0  0  1  0  3  0  0  0  0  0  0
   -5.8319   -2.6024    0.0436 C   0  0  0  1  0  4  0  0  0  0  0  0
   -0.0822   -2.7025   -0.0120 H   0  0  0  1  0  1  0  0  0  0  0  0
   -2.5780    0.7850    0.0415 H   0  0  0  1  0  1  0  0  0  0  0  0
   -4.5750   -0.6477    0.0528 H   0  0  0  1  0  1  0  0  0  0  0  0
    2.2685    3.8720    0.0008 H   0  0  0  1  0  1  0  0  0  0  0  0
    3.9925   -0.7497   -0.0393 H   0  0  0  1  0  1  0  0  0  0  0  0
    4.6874    3.4436   -0.0246 H   0  0  0  1  0  1  0  0  0  0  0  0
    5.5311    1.1319   -0.0431 H   0  0  0  1  0  1  0  0  0  0  0  0
   -2.0181   -4.8054    0.8783 H   0  0  0  1  0  1  0  0  0  0  0  0
   -5.9080   -1.9836    0.9377 H   0  0  0  1  0  1  0  0  0  0  0  0
   -5.9250   -1.9741   -0.8422 H   0  0  0  1  0  1  0  0  0  0  0  0
   -6.6293   -3.3457    0.0472 H   0  0  0  1  0  1  0  0  0  0  0  0
  1  6  1  0  0  0  0
  1  7  1  0  0  0  0
  2 12  1  0  0  0  0
  2 18  1  0  0  0  0
  3 11  1  0  0  0  0
  3 26  1  0  0  0  0
  4  6  2  0  0  0  0
  4  8  1  0  0  0  0
  5  6  1  0  0  0  0
  5  9  2  0  0  0  0
  5 10  1  0  0  0  0
  7  8  1  0  0  0  0
  7 13  2  0  0  0  0
  8 14  2  0  0  0  0
  9 11  1  0  0  0  0
  9 19  1  0  0  0  0
 10 15  2  0  0  0  0
 10 20  1  0  0  0  0
 11 12  2  0  0  0  0
 12 15  1  0  0  0  0
 13 16  1  0  0  0  0
 13 22  1  0  0  0  0
 14 17  1  0  0  0  0
 14 23  1  0  0  0  0
 15 21  1  0  0  0  0
 16 17  2  0  0  0  0
 16 24  1  0  0  0  0
 17 25  1  0  0  0  0
 18 27  1  0  0  0  0
 18 28  1  0  0  0  0
 18 29  1  0  0  0  0
M  END
> <Activity>
3.25

> <Mapped(file=504701.csv.activities,property=Cached(PUBCHEM_COMPOUND_CID))>
3.25

> <PUBCHEM_ATOM_DEF_STEREO_COUNT>
0

> <PUBCHEM_ATOM_UDEF_STEREO_COUNT>
0

> <PUBCHEM_BONDANNOTATIONS>
1  6  8
1  7  8
10  15  8
11  12  8
12  15  8
13  16  8
14  17  8
16  17  8
4  6  8
4  8  8
5  10  8
5  9  8
7  13  8
7  8  8
8  14  8
9  11  8

> <PUBCHEM_BOND_DEF_STEREO_COUNT>
0

> <PUBCHEM_BOND_UDEF_STEREO_COUNT>
0

> <PUBCHEM_CACTVS_COMPLEXITY>
289

> <PUBCHEM_CACTVS_HBOND_ACCEPTOR>
3

> <PUBCHEM_CACTVS_HBOND_DONOR>
1

> <PUBCHEM_CACTVS_ROTATABLE_BOND>
2

> <PUBCHEM_CACTVS_SUBSKEYS>
AAADccByMABAAAAAAAAAAAAAAAAAAWAAAAAwYAAAAAAAAFgB9AAAHgQACAAADAyB3gIyx7IIFgikAyRiRACD+KBhKjhImDw27JgNJqLmsZuEcCtkwBHr+Aew0BIOIAABAAAAQQBAAAIAAACCAAAAAAAAAA==

> <PUBCHEM_CACTVS_TAUTO_COUNT>
3

> <PUBCHEM_CACTVS_TPSA>
70.6

> <PUBCHEM_COMPONENT_COUNT>
1

> <PUBCHEM_COMPOUND_CANONICALIZED>
1

> <PUBCHEM_COMPOUND_CID>
976322

> <PUBCHEM_COORDINATE_TYPE>
1
5
255

> <PUBCHEM_EXACT_MASS>
257.05105

> <PUBCHEM_HEAVY_ATOM_COUNT>
18

> <PUBCHEM_ISOTOPIC_ATOM_COUNT>
0

> <PUBCHEM_IUPAC_CAS_NAME>
5-(1,3-benzothiazol-2-yl)-2-methoxyphenol

> <PUBCHEM_IUPAC_INCHI>
InChI=1S/C14H11NO2S/c1-17-12-7-6-9(8-11(12)16)14-15-10-4-2-3-5-13(10)18-14/h2-8,16H,1H3

> <PUBCHEM_IUPAC_INCHIKEY>
BWCLPNGLALERQB-UHFFFAOYSA-N

> <PUBCHEM_IUPAC_NAME>
5-(1,3-benzothiazol-2-yl)-2-methoxyphenol

> <PUBCHEM_IUPAC_OPENEYE_NAME>
5-(1,3-benzothiazol-2-yl)-2-methoxy-phenol

> <PUBCHEM_IUPAC_SYSTEMATIC_NAME>
5-(1,3-benzothiazol-2-yl)-2-methoxy-phenol

> <PUBCHEM_IUPAC_TRADITIONAL_NAME>
5-(1,3-benzothiazol-2-yl)-2-methoxy-phenol

> <PUBCHEM_MOLECULAR_FORMULA>
C14H11NO2S

> <PUBCHEM_MOLECULAR_WEIGHT>
257.30764

> <PUBCHEM_MONOISOTOPIC_WEIGHT>
257.05105

> <PUBCHEM_OPENEYE_CAN_SMILES>
COC1=C(C=C(C=C1)C2=NC3=CC=CC=C3S2)O

> <PUBCHEM_OPENEYE_ISO_SMILES>
COC1=C(C=C(C=C1)C2=NC3=CC=CC=C3S2)O

> <PUBCHEM_TOTAL_CHARGE>
0

> <PUBCHEM_XLOGP3>
3.9

$$$$
Written by BCL::WriteToMDL,16656525
MBcorina  10171218483D 1   1.00000     0.00000 
CORINA 3.49 0026  01.06.2011
 57 60  0  0  0  0  0  0  0  0999 V2000
   -2.8950   -3.8088   -1.0068 Cl  0  0  0  1  0  1  0  0  0  0  0  0
    0.3033    1.2573   -0.5933 S   0  0  0  1  0  4  0  0  0  0  0  0
    0.5894    2.3205    0.3051 O   0  0  0  1  0  1  0  0  0  0  0  0
   -0.2713    0.0248   -0.1811 O   0  0  0  1  0  1  0  0  0  0  0  0
   -4.6447    0.3238   -2.4572 O   0  0  0  1  0  2  0  0  0  0  0  0
   -5.3555    2.4270   -2.5188 O   0  0  0  1  0  1  0  0  0  0  0  0
   -0.7059    1.8805   -1.7489 N   0  0  0  1  0  3  0  0  0  0  0  0
   -0.4094    3.1604   -2.4151 C   0  0  0  1  0  4  0  0  0  0  0  0
   -1.9301    1.1754   -2.1551 C   0  0  0  1  0  4  0  0  0  0  0  0
   -1.5367    4.1401   -2.0794 C   0  0  0  1  0  4  0  0  0  0  0  0
   -3.0549    2.1664   -2.2701 C   0  0  0  1  0  3  0  0  0  0  0  0
    0.9038    3.7035   -1.9136 C   0  0  0  1  0  3  0  0  0  0  0  0
   -2.8721    3.4765   -2.2421 C   0  0  0  1  0  3  0  0  0  0  0  0
   -2.2788    0.1355   -1.1216 C   0  0  0  1  0  3  0  0  0  0  0  0
    1.8231    0.8561   -1.3895 C   0  0  0  1  0  3  0  0  0  0  0  0
    2.0518    3.5404   -2.6662 C   0  0  0  1  0  3  0  0  0  0  0  0
    0.9594    4.3698   -0.7037 C   0  0  0  1  0  3  0  0  0  0  0  0
   -4.4233    1.6531   -2.4231 C   0  0  0  1  0  3  0  0  0  0  0  0
   -2.4097   -1.1895   -1.4916 C   0  0  0  1  0  3  0  0  0  0  0  0
   -2.4621    0.5065    0.1977 C   0  0  0  1  0  3  0  0  0  0  0  0
    1.8434   -0.0754   -2.4110 C   0  0  0  1  0  3  0  0  0  0  0  0
    2.9939    1.4767   -0.9968 C   0  0  0  1  0  3  0  0  0  0  0  0
    3.2564    4.0386   -2.2062 C   0  0  0  1  0  3  0  0  0  0  0  0
    2.1639    4.8680   -0.2437 C   0  0  0  1  0  3  0  0  0  0  0  0
    3.3129    4.7003   -0.9938 C   0  0  0  1  0  3  0  0  0  0  0  0
   -2.7298   -2.1442   -0.5426 C   0  0  0  1  0  3  0  0  0  0  0  0
   -2.7814   -0.4468    1.1462 C   0  0  0  1  0  3  0  0  0  0  0  0
    3.0356   -0.3902   -3.0355 C   0  0  0  1  0  3  0  0  0  0  0  0
    0.5659   -0.7479   -2.8431 C   0  0  0  1  0  4  0  0  0  0  0  0
    4.1864    1.1619   -1.6215 C   0  0  0  1  0  3  0  0  0  0  0  0
   -2.9187   -1.7716    0.7762 C   0  0  0  1  0  3  0  0  0  0  0  0
    4.2076    0.2268   -2.6391 C   0  0  0  1  0  3  0  0  0  0  0  0
    4.6262    5.2430   -0.4921 C   0  0  0  1  0  4  0  0  0  0  0  0
   -0.3596    3.0115   -3.4937 H   0  0  0  1  0  1  0  0  0  0  0  0
   -1.7697    0.6928   -3.1191 H   0  0  0  1  0  1  0  0  0  0  0  0
   -1.4255    4.4784   -1.0492 H   0  0  0  1  0  1  0  0  0  0  0  0
   -1.4777    4.9999   -2.7467 H   0  0  0  1  0  1  0  0  0  0  0  0
   -3.7408    4.1098   -2.3456 H   0  0  0  1  0  1  0  0  0  0  0  0
    2.0076    3.0235   -3.6134 H   0  0  0  1  0  1  0  0  0  0  0  0
    0.0616    4.5014   -0.1180 H   0  0  0  1  0  1  0  0  0  0  0  0
   -2.2624   -1.4797   -2.5214 H   0  0  0  1  0  1  0  0  0  0  0  0
   -2.3553    1.5415    0.4872 H   0  0  0  1  0  1  0  0  0  0  0  0
    2.9772    2.2078   -0.2021 H   0  0  0  1  0  1  0  0  0  0  0  0
    4.1534    3.9106   -2.7938 H   0  0  0  1  0  1  0  0  0  0  0  0
    2.2073    5.3888    0.7014 H   0  0  0  1  0  1  0  0  0  0  0  0
   -2.9242   -0.1565    2.1766 H   0  0  0  1  0  1  0  0  0  0  0  0
    3.0516   -1.1183   -3.8330 H   0  0  0  1  0  1  0  0  0  0  0  0
    0.1264   -0.1940   -3.6727 H   0  0  0  1  0  1  0  0  0  0  0  0
    0.7818   -1.7679   -3.1611 H   0  0  0  1  0  1  0  0  0  0  0  0
   -0.1345   -0.7681   -2.0081 H   0  0  0  1  0  1  0  0  0  0  0  0
    5.1012    1.6471   -1.3148 H   0  0  0  1  0  1  0  0  0  0  0  0
   -3.1689   -2.5163    1.5173 H   0  0  0  1  0  1  0  0  0  0  0  0
    5.1392   -0.0195   -3.1269 H   0  0  0  1  0  1  0  0  0  0  0  0
   -5.5615    0.0339   -2.5593 H   0  0  0  1  0  1  0  0  0  0  0  0
    4.7572    6.2646   -0.8487 H   0  0  0  1  0  1  0  0  0  0  0  0
    4.6300    5.2353    0.5979 H   0  0  0  1  0  1  0  0  0  0  0  0
    5.4415    4.6215   -0.8626 H   0  0  0  1  0  1  0  0  0  0  0  0
  1 26  1  0  0  0  0
  2  3  2  0  0  0  0
  2  4  2  0  0  0  0
  2  7  1  0  0  0  0
  2 15  1  0  0  0  0
  5 18  1  0  0  0  0
  5 54  1  0  0  0  0
  6 18  2  0  0  0  0
  7  8  1  0  0  0  0
  7  9  1  0  0  0  0
  8 10  1  0  0  0  0
  8 12  1  0  0  0  0
  8 34  1  0  0  0  0
  9 11  1  0  0  0  0
  9 14  1  0  0  0  0
  9 35  1  0  0  0  0
 10 13  1  0  0  0  0
 10 36  1  0  0  0  0
 10 37  1  0  0  0  0
 11 13  2  0  0  0  0
 11 18  1  0  0  0  0
 12 16  2  0  0  0  0
 12 17  1  0  0  0  0
 13 38  1  0  0  0  0
 14 19  2  0  0  0  0
 14 20  1  0  0  0  0
 15 21  1  0  0  0  0
 15 22  2  0  0  0  0
 16 23  1  0  0  0  0
 16 39  1  0  0  0  0
 17 24  2  0  0  0  0
 17 40  1  0  0  0  0
 19 26  1  0  0  0  0
 19 41  1  0  0  0  0
 20 27  2  0  0  0  0
 20 42  1  0  0  0  0
 21 28  2  0  0  0  0
 21 29  1  0  0  0  0
 22 30  1  0  0  0  0
 22 43  1  0  0  0  0
 23 25  2  0  0  0  0
 23 44  1  0  0  0  0
 24 25  1  0  0  0  0
 24 45  1  0  0  0  0
 25 33  1  0  0  0  0
 26 31  2  0  0  0  0
 27 31  1  0  0  0  0
 27 46  1  0  0  0  0
 28 32  1  0  0  0  0
 28 47  1  0  0  0  0
 29 48  1  0  0  0  0
 29 49  1  0  0  0  0
 29 50  1  0  0  0  0
 30 32  2  0  0  0  0
 30 51  1  0  0  0  0
 31 52  1  0  0  0  0
 32 53  1  0  0  0  0
 33 55  1  0  0  0  0
 33 56  1  0  0  0  0
 33 57  1  0  0  0  0
M  END
> <Activity>
0.60086

> <Mapped(file=504701.csv.activities,property=Cached(PUBCHEM_COMPOUND_CID))>
0.60086

> <PUBCHEM_ATOM_DEF_STEREO_COUNT>
2

> <PUBCHEM_ATOM_UDEF_STEREO_COUNT>
0

> <PUBCHEM_BONDANNOTATIONS>
12  16  8
12  17  8
14  19  8
14  20  8
15  21  8
15  22  8
16  23  8
17  24  8
19  26  8
20  27  8
21  28  8
22  30  8
23  25  8
24  25  8
26  31  8
27  31  8
28  32  8
30  32  8
8  12  5
9  14  5

> <PUBCHEM_BOND_DEF_STEREO_COUNT>
0

> <PUBCHEM_BOND_UDEF_STEREO_COUNT>
0

> <PUBCHEM_CACTVS_COMPLEXITY>
830

> <PUBCHEM_CACTVS_HBOND_ACCEPTOR>
5

> <PUBCHEM_CACTVS_HBOND_DONOR>
1

> <PUBCHEM_CACTVS_ROTATABLE_BOND>
5

> <PUBCHEM_CACTVS_SUBSKEYS>
AAADceB6OABEAAAAAAAAAAAAAAAAAAAAAAAwYMEAAAAAAAABUAAAHgYASAAADCrB2CQyCYIAAgKIAiDSCHDCABAgBQAIiBkIBsgIJDqBkxGEcAhmgACImYeYyOCOQAAAIAAEAACAAABAAAgAAAAAAAAAAA==

> <PUBCHEM_CACTVS_TAUTO_COUNT>
1

> <PUBCHEM_CACTVS_TPSA>
83.1

> <PUBCHEM_COMPONENT_COUNT>
1

> <PUBCHEM_COMPOUND_CANONICALIZED>
1

> <PUBCHEM_COMPOUND_CID>
16656525

> <PUBCHEM_COORDINATE_TYPE>
1
5
255

> <PUBCHEM_EXACT_MASS>
481.111457

> <PUBCHEM_HEAVY_ATOM_COUNT>
33

> <PUBCHEM_ISOTOPIC_ATOM_COUNT>
0

> <PUBCHEM_IUPAC_CAS_NAME>
(2S,6S)-6-(3-chlorophenyl)-2-(4-methylphenyl)-1-(2-methylphenyl)sulfonyl-3,6-dihydro-2H-pyridine-5-carboxylic acid

> <PUBCHEM_IUPAC_INCHI>
InChI=1S/C26H24ClNO4S/c1-17-10-12-19(13-11-17)23-15-14-22(26(29)30)25(20-7-5-8-21(27)16-20)28(23)33(31,32)24-9-4-3-6-18(24)2/h3-14,16,23,25H,15H2,1-2H3,(H,29,30)/t23-,25-/m0/s1

> <PUBCHEM_IUPAC_INCHIKEY>
LAEMLQRFDSUBJD-ZCYQVOJMSA-N

> <PUBCHEM_IUPAC_NAME>
(2S,6S)-6-(3-chlorophenyl)-2-(4-methylphenyl)-1-(2-methylphenyl)sulfonyl-3,6-dihydro-2H-pyridine-5-carboxylic acid

> <PUBCHEM_IUPAC_OPENEYE_NAME>
(2S,6S)-6-(3-chlorophenyl)-1-(o-tolylsulfonyl)-2-(p-tolyl)-3,6-dihydro-2H-pyridine-5-carboxylic acid

> <PUBCHEM_IUPAC_SYSTEMATIC_NAME>
(2S,6S)-6-(3-chlorophenyl)-2-(4-methylphenyl)-1-(2-methylphenyl)sulfonyl-3,6-dihydro-2H-pyridine-5-carboxylic acid

> <PUBCHEM_IUPAC_TRADITIONAL_NAME>
(2S,6S)-6-(3-chlorophenyl)-1-(o-tolylsulfonyl)-2-(p-tolyl)-3,6-dihydro-2H-pyridine-5-carboxylic acid

> <PUBCHEM_MOLECULAR_FORMULA>
C26H24ClNO4S

> <PUBCHEM_MOLECULAR_WEIGHT>
481.99106

> <PUBCHEM_MONOISOTOPIC_WEIGHT>
481.111457

> <PUBCHEM_OPENEYE_CAN_SMILES>
CC1=CC=C(C=C1)C2CC=C(C(N2S(=O)(=O)C3=CC=CC=C3C)C4=CC(=CC=C4)Cl)C(=O)O

> <PUBCHEM_OPENEYE_ISO_SMILES>
CC1=CC=C(C=C1)[C@@H]2CC=C([C@@H](N2S(=O)(=O)C3=CC=CC=C3C)C4=CC(=CC=C4)Cl)C(=O)O

> <PUBCHEM_TOTAL_CHARGE>
0

> <PUBCHEM_XLOGP3_AA>
5.6

$$$$
Written by BCL::WriteToMDL,5308655
MBcorina  10171218483D 1   1.00000     0.00000 
CORINA 3.49 0026  01.06.2011
 53 58  0  0  0  0  0  0  0  0999 V2000
    0.8727    1.9666    0.1215 S   0  0  0  1  0  4  0  0  0  0  0  0
   -1.7414    3.8870    0.1963 O   0  0  0  1  0  1  0  0  0  0  0  0
    0.9764    3.2649    0.6897 O   0  0  0  1  0  1  0  0  0  0  0  0
    0.5114    0.8160    0.8731 O   0  0  0  1  0  1  0  0  0  0  0  0
   -0.2253    2.0826   -1.1127 N   0  0  0  1  0  3  0  0  0  0  0  0
   -1.1143    5.6221   -1.0355 N   0  0  0  1  0  3  0  0  0  0  0  0
   -0.6532    7.5676   -2.1257 N   0  0  0  1  0  3  0  0  0  0  0  0
   -0.0753    5.8442   -3.3375 N   0  0  0  1  0  2  0  0  0  0  0  0
    1.6705   -0.5086   -1.3825 N   0  0  0  1  0  2  0  0  0  0  0  0
   -0.6148    3.3230   -1.7992 C   0  0  0  1  0  4  0  0  0  0  0  0
   -1.6777    2.9487   -2.8536 C   0  0  0  1  0  4  0  0  0  0  0  0
   -2.2409    1.6059   -2.3179 C   0  0  0  1  0  4  0  0  0  0  0  0
   -0.9692    0.9584   -1.7094 C   0  0  0  1  0  4  0  0  0  0  0  0
   -1.1976    4.2965   -0.8073 C   0  0  0  1  0  3  0  0  0  0  0  0
   -1.5441    6.6734   -0.1069 C   0  0  0  1  0  4  0  0  0  0  0  0
   -1.2330    7.9876   -0.8424 C   0  0  0  1  0  4  0  0  0  0  0  0
   -0.6029    6.2100   -2.1839 C   0  0  0  1  0  3  0  0  0  0  0  0
    2.4389    1.6148   -0.6050 C   0  0  0  1  0  3  0  0  0  0  0  0
   -0.1302    8.0630   -3.3091 C   0  0  0  1  0  3  0  0  0  0  0  0
    0.2399    6.9418   -4.0690 C   0  0  0  1  0  3  0  0  0  0  0  0
    2.6467    0.3988   -1.2794 C   0  0  0  1  0  3  0  0  0  0  0  0
    3.4517    2.5191   -0.5158 C   0  0  0  1  0  3  0  0  0  0  0  0
    0.0766    9.3395   -3.8089 C   0  0  0  1  0  3  0  0  0  0  0  0
    0.8087    7.1258   -5.3322 C   0  0  0  1  0  3  0  0  0  0  0  0
    3.9146    0.1388   -1.8558 C   0  0  0  1  0  3  0  0  0  0  0  0
    0.6349    9.5040   -5.0600 C   0  0  0  1  0  3  0  0  0  0  0  0
    4.6982    2.2611   -1.0832 C   0  0  0  1  0  3  0  0  0  0  0  0
    1.0075    8.4006   -5.8132 C   0  0  0  1  0  3  0  0  0  0  0  0
    4.9370    1.0950   -1.7439 C   0  0  0  1  0  3  0  0  0  0  0  0
    4.1207   -1.0792   -2.5307 C   0  0  0  1  0  3  0  0  0  0  0  0
    1.8590   -1.6441   -2.0098 C   0  0  0  1  0  3  0  0  0  0  0  0
    3.0807   -1.9618   -2.5995 C   0  0  0  1  0  3  0  0  0  0  0  0
    0.2534    3.7643   -2.2885 H   0  0  0  1  0  1  0  0  0  0  0  0
   -2.4610    3.7055   -2.8971 H   0  0  0  1  0  1  0  0  0  0  0  0
   -1.2182    2.8111   -3.8324 H   0  0  0  1  0  1  0  0  0  0  0  0
   -2.9996    1.7773   -1.5544 H   0  0  0  1  0  1  0  0  0  0  0  0
   -2.6369    0.9965   -3.1302 H   0  0  0  1  0  1  0  0  0  0  0  0
   -0.3744    0.4806   -2.4879 H   0  0  0  1  0  1  0  0  0  0  0  0
   -1.2428    0.2346   -0.9418 H   0  0  0  1  0  1  0  0  0  0  0  0
   -2.6128    6.5922    0.0915 H   0  0  0  1  0  1  0  0  0  0  0  0
   -0.9780    6.6145    0.8227 H   0  0  0  1  0  1  0  0  0  0  0  0
   -0.5151    8.5823   -0.2777 H   0  0  0  1  0  1  0  0  0  0  0  0
   -2.1502    8.5530   -1.0069 H   0  0  0  1  0  1  0  0  0  0  0  0
    3.2871    3.4518    0.0033 H   0  0  0  1  0  1  0  0  0  0  0  0
   -0.1988   10.2026   -3.2209 H   0  0  0  1  0  1  0  0  0  0  0  0
    1.0917    6.2712   -5.9288 H   0  0  0  1  0  1  0  0  0  0  0  0
    0.7956   10.4985   -5.4494 H   0  0  0  1  0  1  0  0  0  0  0  0
    5.4847    2.9964   -0.9985 H   0  0  0  1  0  1  0  0  0  0  0  0
    1.4474    8.5422   -6.7893 H   0  0  0  1  0  1  0  0  0  0  0  0
    5.9071    0.9064   -2.1794 H   0  0  0  1  0  1  0  0  0  0  0  0
    5.0747   -1.3093   -2.9818 H   0  0  0  1  0  1  0  0  0  0  0  0
    1.0455   -2.3517   -2.0718 H   0  0  0  1  0  1  0  0  0  0  0  0
    3.2054   -2.9054   -3.1098 H   0  0  0  1  0  1  0  0  0  0  0  0
  1  3  2  0  0  0  0
  1  4  2  0  0  0  0
  1  5  1  0  0  0  0
  1 18  1  0  0  0  0
  2 14  2  0  0  0  0
  5 10  1  0  0  0  0
  5 13  1  0  0  0  0
  6 14  1  0  0  0  0
  6 15  1  0  0  0  0
  6 17  1  0  0  0  0
  7 16  1  0  0  0  0
  7 17  1  0  0  0  0
  7 19  1  0  0  0  0
  8 17  2  0  0  0  0
  8 20  1  0  0  0  0
  9 21  1  0  0  0  0
  9 31  2  0  0  0  0
 10 11  1  0  0  0  0
 10 14  1  0  0  0  0
 10 33  1  0  0  0  0
 11 12  1  0  0  0  0
 11 34  1  0  0  0  0
 11 35  1  0  0  0  0
 12 13  1  0  0  0  0
 12 36  1  0  0  0  0
 12 37  1  0  0  0  0
 13 38  1  0  0  0  0
 13 39  1  0  0  0  0
 15 16  1  0  0  0  0
 15 40  1  0  0  0  0
 15 41  1  0  0  0  0
 16 42  1  0  0  0  0
 16 43  1  0  0  0  0
 18 21  1  0  0  0  0
 18 22  2  0  0  0  0
 19 20  1  0  0  0  0
 19 23  2  0  0  0  0
 20 24  2  0  0  0  0
 21 25  2  0  0  0  0
 22 27  1  0  0  0  0
 22 44  1  0  0  0  0
 23 26  1  0  0  0  0
 23 45  1  0  0  0  0
 24 28  1  0  0  0  0
 24 46  1  0  0  0  0
 25 29  1  0  0  0  0
 25 30  1  0  0  0  0
 26 28  2  0  0  0  0
 26 47  1  0  0  0  0
 27 29  2  0  0  0  0
 27 48  1  0  0  0  0
 28 49  1  0  0  0  0
 29 50  1  0  0  0  0
 30 32  2  0  0  0  0
 30 51  1  0  0  0  0
 31 32  1  0  0  0  0
 31 52  1  0  0  0  0
 32 53  1  0  0  0  0
M  END
> <Activity>
0.15275

> <Mapped(file=504701.csv.activities,property=Cached(PUBCHEM_COMPOUND_CID))>
0.15275

> <PUBCHEM_ATOM_DEF_STEREO_COUNT>
0

> <PUBCHEM_ATOM_UDEF_STEREO_COUNT>
1

> <PUBCHEM_BONDANNOTATIONS>
10  14  3
18  21  8
18  22  8
19  20  8
19  23  8
20  24  8
21  25  8
22  27  8
23  26  8
24  28  8
25  29  8
25  30  8
26  28  8
27  29  8
30  32  8
31  32  8
7  17  8
7  19  8
8  17  8
8  20  8
9  21  8
9  31  8

> <PUBCHEM_BOND_DEF_STEREO_COUNT>
0

> <PUBCHEM_BOND_UDEF_STEREO_COUNT>
0

> <PUBCHEM_CACTVS_COMPLEXITY>
832

> <PUBCHEM_CACTVS_HBOND_ACCEPTOR>
5

> <PUBCHEM_CACTVS_HBOND_DONOR>
0

> <PUBCHEM_CACTVS_ROTATABLE_BOND>
3

> <PUBCHEM_CACTVS_SUBSKEYS>
AAADceB7sABAAAAAAAAAAAAAAAAAAWLFgAA8YIAAAAAWAFix/gAAHgQAQAAADCjB3gQ90fcMEAKoAzV3dHDCgD0xEqAJ2D24dJiIaPLAmbGUIAhohwLIyCcYgYAOAAAAgAACASAAAAEAAAQCQAAAAAAAAA==

> <PUBCHEM_CACTVS_TAUTO_COUNT>
1

> <PUBCHEM_CACTVS_TPSA>
96.8

> <PUBCHEM_COMPONENT_COUNT>
1

> <PUBCHEM_COMPOUND_CANONICALIZED>
1

> <PUBCHEM_COMPOUND_CID>
5308655

> <PUBCHEM_COORDINATE_TYPE>
1
5
255

> <PUBCHEM_EXACT_MASS>
447.136511

> <PUBCHEM_HEAVY_ATOM_COUNT>
32

> <PUBCHEM_ISOTOPIC_ATOM_COUNT>
0

> <PUBCHEM_IUPAC_CAS_NAME>
1,2-dihydroimidazo[1,2-a]benzimidazol-3-yl-[1-(8-quinolinylsulfonyl)-2-pyrrolidinyl]methanone

> <PUBCHEM_IUPAC_INCHI>
InChI=1S/C23H21N5O3S/c29-22(27-15-14-26-18-9-2-1-8-17(18)25-23(26)27)19-10-5-13-28(19)32(30,31)20-11-3-6-16-7-4-12-24-21(16)20/h1-4,6-9,11-12,19H,5,10,13-15H2

> <PUBCHEM_IUPAC_INCHIKEY>
QNEZKPVRJPTWRI-UHFFFAOYSA-N

> <PUBCHEM_IUPAC_NAME>
1,2-dihydroimidazo[1,2-a]benzimidazol-3-yl-(1-quinolin-8-ylsulfonylpyrrolidin-2-yl)methanone

> <PUBCHEM_IUPAC_OPENEYE_NAME>
1,2-dihydroimidazo[1,2-a]benzimidazol-3-yl-[1-(8-quinolylsulfonyl)pyrrolidin-2-yl]methanone

> <PUBCHEM_IUPAC_SYSTEMATIC_NAME>
1,2-dihydroimidazo[1,2-a]benzimidazol-3-yl-(1-quinolin-8-ylsulfonylpyrrolidin-2-yl)methanone

> <PUBCHEM_IUPAC_TRADITIONAL_NAME>
1,2-dihydroimidazo[1,2-a]benzimidazol-3-yl-[1-(8-quinolylsulfonyl)pyrrolidin-2-yl]methanone

> <PUBCHEM_MOLECULAR_FORMULA>
C23H21N5O3S

> <PUBCHEM_MOLECULAR_WEIGHT>
447.50954

> <PUBCHEM_MONOISOTOPIC_WEIGHT>
447.136511

> <PUBCHEM_OPENEYE_CAN_SMILES>
C1CC(N(C1)S(=O)(=O)C2=CC=CC3=C2N=CC=C3)C(=O)N4CCN5C4=NC6=CC=CC=C65

> <PUBCHEM_OPENEYE_ISO_SMILES>
C1CC(N(C1)S(=O)(=O)C2=CC=CC3=C2N=CC=C3)C(=O)N4CCN5C4=NC6=CC=CC=C65

> <PUBCHEM_TOTAL_CHARGE>
0

> <PUBCHEM_XLOGP3_AA>
2.5

$$$$
Written by BCL::WriteToMDL,24031031
MBcorina  10171218483D 1   1.00000     0.00000 
CORINA 3.49 0026  01.06.2011
 54 57  0  0  0  0  0  0  0  0999 V2000
    0.6489   -0.4928    1.0812 O   0  0  0  1  0  2  0  0  0  0  0  0
   -8.0462   -2.0561    0.7953 O   0  0  0  1  0  2  0  0  0  0  0  0
   -3.7984   -2.2745    1.3837 O   0  0  0  1  0  1  0  0  0  0  0  0
   -5.6266   -3.3302   -1.4052 O   0  0  0  1  0  1  0  0  0  0  0  0
   -8.3998   -6.9370   -4.4672 O   0  0  0  1  0  2  0  0  0  0  0  0
   -1.9626   -1.6007    0.3360 N   0  0  0  1  0  3  0  0  0  0  0  0
   -5.5894   -1.3752   -0.3081 N   0  0  0  1  0  3  0  0  0  0  0  0
    0.3620   -1.9074    1.0315 C   0  0  0  1  0  4  0  0  0  0  0  0
    1.2872   -2.5354    2.0973 C   0  0  0  1  0  4  0  0  0  0  0  0
    2.4447   -1.5212    2.2343 C   0  0  0  1  0  4  0  0  0  0  0  0
    2.0819   -0.4004    1.2350 C   0  0  0  1  0  4  0  0  0  0  0  0
   -1.1051   -2.1659    1.3807 C   0  0  0  1  0  4  0  0  0  0  0  0
   -3.3025   -1.7091    0.4322 C   0  0  0  1  0  3  0  0  0  0  0  0
   -4.1847   -1.1277   -0.6425 C   0  0  0  1  0  4  0  0  0  0  0  0
   -6.3145   -0.4503    0.4542 C   0  0  0  1  0  3  0  0  0  0  0  0
   -6.2104   -2.5029   -0.7307 C   0  0  0  1  0  3  0  0  0  0  0  0
   -7.5468   -0.8055    1.0015 C   0  0  0  1  0  3  0  0  0  0  0  0
   -7.6244   -2.6897   -0.3416 C   0  0  0  1  0  3  0  0  0  0  0  0
   -5.8080    0.8232    0.6666 C   0  0  0  1  0  3  0  0  0  0  0  0
   -8.2601    0.1132    1.7525 C   0  0  0  1  0  3  0  0  0  0  0  0
   -8.4636   -3.4524   -1.0768 C   0  0  0  1  0  3  0  0  0  0  0  0
   -6.5262    1.7348    1.4180 C   0  0  0  1  0  3  0  0  0  0  0  0
   -7.7486    1.3817    1.9588 C   0  0  0  1  0  3  0  0  0  0  0  0
   -8.0373   -3.9579   -2.3915 C   0  0  0  1  0  3  0  0  0  0  0  0
   -8.4276   -5.2316   -2.8139 C   0  0  0  1  0  3  0  0  0  0  0  0
   -7.2444   -3.1633   -3.2262 C   0  0  0  1  0  3  0  0  0  0  0  0
   -8.0226   -5.6990   -4.0522 C   0  0  0  1  0  3  0  0  0  0  0  0
   -6.8478   -3.6410   -4.4575 C   0  0  0  1  0  3  0  0  0  0  0  0
   -7.2308   -4.9044   -4.8708 C   0  0  0  1  0  3  0  0  0  0  0  0
   -7.9460   -7.3555   -5.7560 C   0  0  0  1  0  4  0  0  0  0  0  0
    0.5941   -2.3072    0.0444 H   0  0  0  1  0  1  0  0  0  0  0  0
    0.7598   -2.6434    3.0451 H   0  0  0  1  0  1  0  0  0  0  0  0
    1.6629   -3.5001    1.7562 H   0  0  0  1  0  1  0  0  0  0  0  0
    2.4896   -1.1277    3.2498 H   0  0  0  1  0  1  0  0  0  0  0  0
    3.3927   -1.9845    1.9609 H   0  0  0  1  0  1  0  0  0  0  0  0
    2.5778   -0.5691    0.2792 H   0  0  0  1  0  1  0  0  0  0  0  0
    2.3581    0.5731    1.6401 H   0  0  0  1  0  1  0  0  0  0  0  0
   -1.3392   -1.6967    2.3362 H   0  0  0  1  0  1  0  0  0  0  0  0
   -1.2780   -3.2398    1.4512 H   0  0  0  1  0  1  0  0  0  0  0  0
   -1.5660   -1.1485   -0.4250 H   0  0  0  1  0  1  0  0  0  0  0  0
   -3.9505   -1.5969   -1.5980 H   0  0  0  1  0  1  0  0  0  0  0  0
   -4.0117   -0.0538   -0.7129 H   0  0  0  1  0  1  0  0  0  0  0  0
   -4.8537    1.1027    0.2451 H   0  0  0  1  0  1  0  0  0  0  0  0
   -9.2151   -0.1601    2.1765 H   0  0  0  1  0  1  0  0  0  0  0  0
   -9.4470   -3.6910   -0.6995 H   0  0  0  1  0  1  0  0  0  0  0  0
   -6.1309    2.7262    1.5832 H   0  0  0  1  0  1  0  0  0  0  0  0
   -8.3053    2.0981    2.5447 H   0  0  0  1  0  1  0  0  0  0  0  0
   -9.0428   -5.8491   -2.1763 H   0  0  0  1  0  1  0  0  0  0  0  0
   -6.9435   -2.1765   -2.9068 H   0  0  0  1  0  1  0  0  0  0  0  0
   -6.2360   -3.0267   -5.1014 H   0  0  0  1  0  1  0  0  0  0  0  0
   -6.9164   -5.2726   -5.8361 H   0  0  0  1  0  1  0  0  0  0  0  0
   -8.3187   -6.6664   -6.5138 H   0  0  0  1  0  1  0  0  0  0  0  0
   -6.8562   -7.3602   -5.7736 H   0  0  0  1  0  1  0  0  0  0  0  0
   -8.3171   -8.3592   -5.9636 H   0  0  0  1  0  1  0  0  0  0  0  0
  1  8  1  0  0  0  0
  1 11  1  0  0  0  0
  2 17  1  0  0  0  0
  2 18  1  0  0  0  0
  3 13  2  0  0  0  0
  4 16  2  0  0  0  0
  5 27  1  0  0  0  0
  5 30  1  0  0  0  0
  6 12  1  0  0  0  0
  6 13  1  0  0  0  0
  6 40  1  0  0  0  0
  7 14  1  0  0  0  0
  7 15  1  0  0  0  0
  7 16  1  0  0  0  0
  8  9  1  0  0  0  0
  8 12  1  0  0  0  0
  8 31  1  0  0  0  0
  9 10  1  0  0  0  0
  9 32  1  0  0  0  0
  9 33  1  0  0  0  0
 10 11  1  0  0  0  0
 10 34  1  0  0  0  0
 10 35  1  0  0  0  0
 11 36  1  0  0  0  0
 11 37  1  0  0  0  0
 12 38  1  0  0  0  0
 12 39  1  0  0  0  0
 13 14  1  0  0  0  0
 14 41  1  0  0  0  0
 14 42  1  0  0  0  0
 15 17  1  0  0  0  0
 15 19  2  0  0  0  0
 16 18  1  0  0  0  0
 17 20  2  0  0  0  0
 18 21  2  0  0  0  0
 19 22  1  0  0  0  0
 19 43  1  0  0  0  0
 20 23  1  0  0  0  0
 20 44  1  0  0  0  0
 21 24  1  0  0  0  0
 21 45  1  0  0  0  0
 22 23  2  0  0  0  0
 22 46  1  0  0  0  0
 23 47  1  0  0  0  0
 24 25  2  0  0  0  0
 24 26  1  0  0  0  0
 25 27  1  0  0  0  0
 25 48  1  0  0  0  0
 26 28  2  0  0  0  0
 26 49  1  0  0  0  0
 27 29  2  0  0  0  0
 28 29  1  0  0  0  0
 28 50  1  0  0  0  0
 29 51  1  0  0  0  0
 30 52  1  0  0  0  0
 30 53  1  0  0  0  0
 30 54  1  0  0  0  0
M  END
> <Activity>
0.25354

> <Mapped(file=504701.csv.activities,property=Cached(PUBCHEM_COMPOUND_CID))>
0.25354

> <PUBCHEM_ATOM_DEF_STEREO_COUNT>
0

> <PUBCHEM_ATOM_UDEF_STEREO_COUNT>
1

> <PUBCHEM_BONDANNOTATIONS>
15  17  8
15  19  8
17  20  8
19  22  8
20  23  8
22  23  8
24  25  8
24  26  8
25  27  8
26  28  8
27  29  8
28  29  8
8  12  3

> <PUBCHEM_BOND_DEF_STEREO_COUNT>
1

> <PUBCHEM_BOND_UDEF_STEREO_COUNT>
0

> <PUBCHEM_CACTVS_COMPLEXITY>
652

> <PUBCHEM_CACTVS_HBOND_ACCEPTOR>
5

> <PUBCHEM_CACTVS_HBOND_DONOR>
1

> <PUBCHEM_CACTVS_ROTATABLE_BOND>
6

> <PUBCHEM_CACTVS_SUBSKEYS>
AAADceB7OAAAAAAAAAAAAAAAAAAAASAAAAA8YIAAAAAAAACxQAAAHgAQAAAADBzhmAYyxoPABACIAiVSUAKCCAAhIgAIiIDPbMgOZiLEsb+XOCjk1hHY6YeQ0BIOAAABAAAAEAAAAAIAAAAgAAAAAAAAAA==

> <PUBCHEM_CACTVS_TAUTO_COUNT>
2

> <PUBCHEM_CACTVS_TPSA>
77.1

> <PUBCHEM_COMPONENT_COUNT>
1

> <PUBCHEM_COMPOUND_CANONICALIZED>
1

> <PUBCHEM_COMPOUND_CID>
24031031

> <PUBCHEM_COORDINATE_TYPE>
1
5
255

> <PUBCHEM_EXACT_MASS>
408.168522

> <PUBCHEM_HEAVY_ATOM_COUNT>
30

> <PUBCHEM_ISOTOPIC_ATOM_COUNT>
0

> <PUBCHEM_IUPAC_CAS_NAME>
2-[(2E)-2-[(3-methoxyphenyl)methylidene]-3-oxo-1,4-benzoxazin-4-yl]-N-(2-oxolanylmethyl)acetamide

> <PUBCHEM_IUPAC_INCHI>
InChI=1S/C23H24N2O5/c1-28-17-7-4-6-16(12-17)13-21-23(27)25(19-9-2-3-10-20(19)30-21)15-22(26)24-14-18-8-5-11-29-18/h2-4,6-7,9-10,12-13,18H,5,8,11,14-15H2,1H3,(H,24,26)/b21-13+

> <PUBCHEM_IUPAC_INCHIKEY>
CGOPIFOCIZZGDF-FYJGNVAPSA-N

> <PUBCHEM_IUPAC_NAME>
2-[(2E)-2-[(3-methoxyphenyl)methylidene]-3-oxo-1,4-benzoxazin-4-yl]-N-(oxolan-2-ylmethyl)acetamide

> <PUBCHEM_IUPAC_OPENEYE_NAME>
2-[(2E)-2-[(3-methoxyphenyl)methylene]-3-oxo-1,4-benzoxazin-4-yl]-N-(tetrahydrofuran-2-ylmethyl)acetamide

> <PUBCHEM_IUPAC_SYSTEMATIC_NAME>
2-[(2E)-2-[(3-methoxyphenyl)methylidene]-3-oxidanylidene-1,4-benzoxazin-4-yl]-N-(oxolan-2-ylmethyl)ethanamide

> <PUBCHEM_IUPAC_TRADITIONAL_NAME>
2-[(2E)-3-keto-2-m-anisylidene-1,4-benzoxazin-4-yl]-N-(tetrahydrofurfuryl)acetamide

> <PUBCHEM_MOLECULAR_FORMULA>
C23H24N2O5

> <PUBCHEM_MOLECULAR_WEIGHT>
408.44706

> <PUBCHEM_MONOISOTOPIC_WEIGHT>
408.168522

> <PUBCHEM_OPENEYE_CAN_SMILES>
COC1=CC=CC(=C1)C=C2C(=O)N(C3=CC=CC=C3O2)CC(=O)NCC4CCCO4

> <PUBCHEM_OPENEYE_ISO_SMILES>
COC1=CC=CC(=C1)/C=C/2\C(=O)N(C3=CC=CC=C3O2)CC(=O)NCC4CCCO4

> <PUBCHEM_TOTAL_CHARGE>
0

> <PUBCHEM_XLOGP3_AA>
2.9

$$$$
Written by BCL::WriteToMDL,24792639
MBcorina  10171218483D 1   1.00000     0.00000 
CORINA 3.49 0026  01.06.2011
 41 45  0  0  0  0  0  0  0  0999 V2000
   -0.0162    1.3440    0.0094 O   0  0  0  1  0  2  0  0  0  0  0  0
    4.7168    1.6980    0.6315 O   0  0  0  1  0  2  0  0  0  0  0  0
    3.3776   -0.4774    1.1251 O   0  0  0  1  0  1  0  0  0  0  0  0
   -5.6644   -5.1669   -1.5656 N   0  0  0  1  0  3  0  0  0  0  0  0
   -1.1326   -2.1016   -0.3142 C   0  0  0  1  0  3  0  0  0  0  0  0
    1.1726   -0.7163    0.3133 C   0  0  0  1  0  3  0  0  0  0  0  0
    0.0021   -0.0041    0.0020 C   0  0  0  1  0  3  0  0  0  0  0  0
   -2.3643   -2.8534   -0.6543 C   0  0  0  1  0  3  0  0  0  0  0  0
    2.3569    1.4893    0.3133 C   0  0  0  1  0  3  0  0  0  0  0  0
   -1.1504   -0.7114   -0.3155 C   0  0  0  1  0  3  0  0  0  0  0  0
   -3.5162   -4.9376   -0.9755 C   0  0  0  1  0  3  0  0  0  0  0  0
    2.3967    0.0487    0.6314 C   0  0  0  1  0  3  0  0  0  0  0  0
    1.1179    2.0729    0.0025 C   0  0  0  1  0  3  0  0  0  0  0  0
   -4.6912   -4.2318   -1.2961 C   0  0  0  1  0  3  0  0  0  0  0  0
   -2.3512   -4.2420   -0.6544 C   0  0  0  1  0  3  0  0  0  0  0  0
    0.0380   -2.7960    0.0058 C   0  0  0  1  0  3  0  0  0  0  0  0
    1.1778   -2.1115    0.3158 C   0  0  0  1  0  3  0  0  0  0  0  0
   -3.5384   -2.1626   -0.9753 C   0  0  0  1  0  3  0  0  0  0  0  0
   -4.6808   -2.8392   -1.2897 C   0  0  0  1  0  3  0  0  0  0  0  0
    3.5235    2.2620    0.3176 C   0  0  0  1  0  3  0  0  0  0  0  0
   -3.8580   -6.3592   -1.0734 C   0  0  0  1  0  3  0  0  0  0  0  0
    1.0725    3.4256   -0.3156 C   0  0  0  1  0  3  0  0  0  0  0  0
   -5.1505   -6.4276   -1.4285 C   0  0  0  1  0  3  0  0  0  0  0  0
    3.4491    3.6084   -0.0005 C   0  0  0  1  0  3  0  0  0  0  0  0
    2.2282    4.1795   -0.3159 C   0  0  0  1  0  3  0  0  0  0  0  0
    5.8626    2.5518    0.6140 C   0  0  0  1  0  4  0  0  0  0  0  0
   -2.0587   -0.1823   -0.5633 H   0  0  0  1  0  1  0  0  0  0  0  0
   -1.4470   -4.7784   -0.4071 H   0  0  0  1  0  1  0  0  0  0  0  0
    0.0405   -3.8760    0.0077 H   0  0  0  1  0  1  0  0  0  0  0  0
    2.0816   -2.6488    0.5624 H   0  0  0  1  0  1  0  0  0  0  0  0
   -3.5405   -1.0826   -0.9732 H   0  0  0  1  0  1  0  0  0  0  0  0
   -5.5797   -2.2931   -1.5349 H   0  0  0  1  0  1  0  0  0  0  0  0
   -3.1956   -7.1933   -0.8945 H   0  0  0  1  0  1  0  0  0  0  0  0
   -6.5800   -4.9626   -1.8126 H   0  0  0  1  0  1  0  0  0  0  0  0
    0.1286    3.8884   -0.5632 H   0  0  0  1  0  1  0  0  0  0  0  0
   -5.7035   -7.3425   -1.5822 H   0  0  0  1  0  1  0  0  0  0  0  0
    4.3440    4.2130   -0.0014 H   0  0  0  1  0  1  0  0  0  0  0  0
    2.1797    5.2290   -0.5659 H   0  0  0  1  0  1  0  0  0  0  0  0
    5.9896    2.9690   -0.3850 H   0  0  0  1  0  1  0  0  0  0  0  0
    5.7236    3.3611    1.3308 H   0  0  0  1  0  1  0  0  0  0  0  0
    6.7485    1.9765    0.8828 H   0  0  0  1  0  1  0  0  0  0  0  0
  1  7  1  0  0  0  0
  1 13  1  0  0  0  0
  2 20  1  0  0  0  0
  2 26  1  0  0  0  0
  3 12  2  0  0  0  0
  4 14  1  0  0  0  0
  4 23  1  0  0  0  0
  4 34  1  0  0  0  0
  5  8  1  0  0  0  0
  5 10  2  0  0  0  0
  5 16  1  0  0  0  0
  6  7  2  0  0  0  0
  6 12  1  0  0  0  0
  6 17  1  0  0  0  0
  7 10  1  0  0  0  0
  8 15  2  0  0  0  0
  8 18  1  0  0  0  0
  9 12  1  0  0  0  0
  9 13  2  0  0  0  0
  9 20  1  0  0  0  0
 10 27  1  0  0  0  0
 11 14  2  0  0  0  0
 11 15  1  0  0  0  0
 11 21  1  0  0  0  0
 13 22  1  0  0  0  0
 14 19  1  0  0  0  0
 15 28  1  0  0  0  0
 16 17  2  0  0  0  0
 16 29  1  0  0  0  0
 17 30  1  0  0  0  0
 18 19  2  0  0  0  0
 18 31  1  0  0  0  0
 19 32  1  0  0  0  0
 20 24  2  0  0  0  0
 21 23  2  0  0  0  0
 21 33  1  0  0  0  0
 22 25  2  0  0  0  0
 22 35  1  0  0  0  0
 23 36  1  0  0  0  0
 24 25  1  0  0  0  0
 24 37  1  0  0  0  0
 25 38  1  0  0  0  0
 26 39  1  0  0  0  0
 26 40  1  0  0  0  0
 26 41  1  0  0  0  0
M  END
> <Activity>
0.919

> <Mapped(file=504701.csv.activities,property=Cached(PUBCHEM_COMPOUND_CID))>
0.919

> <PUBCHEM_ATOM_DEF_STEREO_COUNT>
0

> <PUBCHEM_ATOM_UDEF_STEREO_COUNT>
0

> <PUBCHEM_BONDANNOTATIONS>
1  13  8
1  7  8
11  14  8
11  15  8
11  21  8
13  22  8
14  19  8
16  17  8
18  19  8
20  24  8
21  23  8
22  25  8
24  25  8
4  14  8
4  23  8
5  10  8
5  16  8
6  12  8
6  17  8
6  7  8
7  10  8
8  15  8
8  18  8
9  12  8
9  13  8
9  20  8

> <PUBCHEM_BOND_DEF_STEREO_COUNT>
0

> <PUBCHEM_BOND_UDEF_STEREO_COUNT>
0

> <PUBCHEM_CACTVS_COMPLEXITY>
538

> <PUBCHEM_CACTVS_HBOND_ACCEPTOR>
3

> <PUBCHEM_CACTVS_HBOND_DONOR>
1

> <PUBCHEM_CACTVS_ROTATABLE_BOND>
2

> <PUBCHEM_CACTVS_SUBSKEYS>
AAADccB6MAAAAAAAAAAAAAAAAAAAAWAAAAA0YMEAAAAAAFiR9AAAHgAQAAAADAzBngY+xvLJlACoA7R3RACCiCA1IiAI2aE+bNgMJ/bEtZuGOWjl8BXI6YeY6PyOyAADCAAKAACQAAYQABQAAAAAAAAAAA==

> <PUBCHEM_CACTVS_TAUTO_COUNT>
6

> <PUBCHEM_CACTVS_TPSA>
51.3

> <PUBCHEM_COMPONENT_COUNT>
1

> <PUBCHEM_COMPOUND_CANONICALIZED>
1

> <PUBCHEM_COMPOUND_CID>
24792639

> <PUBCHEM_COORDINATE_TYPE>
1
5
255

> <PUBCHEM_EXACT_MASS>
341.105193

> <PUBCHEM_HEAVY_ATOM_COUNT>
26

> <PUBCHEM_ISOTOPIC_ATOM_COUNT>
0

> <PUBCHEM_IUPAC_CAS_NAME>
6-(1H-indol-5-yl)-1-methoxy-9-xanthenone

> <PUBCHEM_IUPAC_INCHI>
InChI=1S/C22H15NO3/c1-25-18-3-2-4-19-21(18)22(24)16-7-5-14(12-20(16)26-19)13-6-8-17-15(11-13)9-10-23-17/h2-12,23H,1H3

> <PUBCHEM_IUPAC_INCHIKEY>
SMFRTESAWGAGAJ-UHFFFAOYSA-N

> <PUBCHEM_IUPAC_NAME>
6-(1H-indol-5-yl)-1-methoxyxanthen-9-one

> <PUBCHEM_IUPAC_OPENEYE_NAME>
6-(1H-indol-5-yl)-1-methoxy-xanthen-9-one

> <PUBCHEM_IUPAC_SYSTEMATIC_NAME>
6-(1H-indol-5-yl)-1-methoxy-xanthen-9-one

> <PUBCHEM_IUPAC_TRADITIONAL_NAME>
6-(1H-indol-5-yl)-1-methoxy-xanthone

> <PUBCHEM_MOLECULAR_FORMULA>
C22H15NO3

> <PUBCHEM_MOLECULAR_WEIGHT>
341.3594

> <PUBCHEM_MONOISOTOPIC_WEIGHT>
341.105193

> <PUBCHEM_OPENEYE_CAN_SMILES>
COC1=CC=CC2=C1C(=O)C3=C(O2)C=C(C=C3)C4=CC5=C(C=C4)NC=C5

> <PUBCHEM_OPENEYE_ISO_SMILES>
COC1=CC=CC2=C1C(=O)C3=C(O2)C=C(C=C3)C4=CC5=C(C=C4)NC=C5

> <PUBCHEM_TOTAL_CHARGE>
0

> <PUBCHEM_XLOGP3_AA>
4.7

$$$$
Written by BCL::WriteToMDL,2830086
MBcorina  10171218483D 1   1.00000     0.00000 
CORINA 3.49 0026  01.06.2011
 43 44  0  0  0  0  0  0  0  0999 V2000
   -2.0613    2.1954   -3.1267 Cl  0  0  0  1  0  1  0  0  0  0  0  0
   -2.9455    0.4743   -0.9076 Cl  0  0  0  1  0  1  0  0  0  0  0  0
   -2.0042   -0.7334   -3.4224 Cl  0  0  0  1  0  1  0  0  0  0  0  0
    2.1489    2.1376   -2.0268 S   0  0  0  1  0  1  0  0  0  0  0  0
    1.8610   -0.9125   -2.0018 O   0  0  0  1  0  1  0  0  0  0  0  0
   -0.1622    1.7188   -0.7865 N   0  0  0  1  0  3  0  0  0  0  0  0
   -0.1158   -0.6610   -1.0267 N   0  0  0  1  0  3  0  0  0  0  0  0
    1.1218    3.4981    0.0101 N   0  0  0  1  0  3  0  0  0  0  0  0
    5.8830    6.3140    0.0529 N   0  0  0  1  0  2  0  0  0  0  0  0
    7.0051    5.6852   -0.0442 N   0  0  0  1  0  2  0  0  0  0  0  0
   -0.3477    0.6072   -1.7226 C   0  0  0  1  0  4  0  0  0  0  0  0
   -1.7760    0.6346   -2.2704 C   0  0  0  1  0  4  0  0  0  0  0  0
    0.9512    2.4754   -0.8510 C   0  0  0  1  0  3  0  0  0  0  0  0
    2.3227    4.2084    0.0206 C   0  0  0  1  0  3  0  0  0  0  0  0
    1.0257   -1.3460   -1.2368 C   0  0  0  1  0  3  0  0  0  0  0  0
    2.3077    5.5949    0.1363 C   0  0  0  1  0  3  0  0  0  0  0  0
    3.5322    3.5277   -0.0790 C   0  0  0  1  0  3  0  0  0  0  0  0
    4.7084    5.6193    0.0422 C   0  0  0  1  0  3  0  0  0  0  0  0
    3.4903    6.2994    0.1474 C   0  0  0  1  0  3  0  0  0  0  0  0
    4.7193    4.2247   -0.0681 C   0  0  0  1  0  3  0  0  0  0  0  0
    1.2642   -2.6506   -0.5210 C   0  0  0  1  0  4  0  0  0  0  0  0
    8.1818    6.3811   -0.0335 C   0  0  0  1  0  3  0  0  0  0  0  0
    9.3994    5.7033   -0.1385 C   0  0  0  1  0  3  0  0  0  0  0  0
    8.1726    7.7742    0.0767 C   0  0  0  1  0  3  0  0  0  0  0  0
   10.5824    6.4120   -0.1270 C   0  0  0  1  0  3  0  0  0  0  0  0
    9.3636    8.4695    0.0868 C   0  0  0  1  0  3  0  0  0  0  0  0
   10.5657    7.7910   -0.0118 C   0  0  0  1  0  3  0  0  0  0  0  0
    0.3594    0.7041   -2.5464 H   0  0  0  1  0  1  0  0  0  0  0  0
   -0.8426    1.9127   -0.1229 H   0  0  0  1  0  1  0  0  0  0  0  0
   -0.7839   -1.0077   -0.4149 H   0  0  0  1  0  1  0  0  0  0  0  0
    0.4097    3.7403    0.6226 H   0  0  0  1  0  1  0  0  0  0  0  0
    1.3669    6.1191    0.2171 H   0  0  0  1  0  1  0  0  0  0  0  0
    3.5397    2.4511   -0.1645 H   0  0  0  1  0  1  0  0  0  0  0  0
    3.4778    7.3756    0.2369 H   0  0  0  1  0  1  0  0  0  0  0  0
    5.6577    3.6956   -0.1447 H   0  0  0  1  0  1  0  0  0  0  0  0
    2.2329   -3.0546   -0.8151 H   0  0  0  1  0  1  0  0  0  0  0  0
    1.2528   -2.4816    0.5558 H   0  0  0  1  0  1  0  0  0  0  0  0
    0.4794   -3.3591   -0.7859 H   0  0  0  1  0  1  0  0  0  0  0  0
    9.4139    4.6271   -0.2281 H   0  0  0  1  0  1  0  0  0  0  0  0
    7.2352    8.3050    0.1534 H   0  0  0  1  0  1  0  0  0  0  0  0
   11.5242    5.8895   -0.2077 H   0  0  0  1  0  1  0  0  0  0  0  0
    9.3581    9.5462    0.1716 H   0  0  0  1  0  1  0  0  0  0  0  0
   11.4953    8.3407   -0.0030 H   0  0  0  1  0  1  0  0  0  0  0  0
  1 12  1  0  0  0  0
  2 12  1  0  0  0  0
  3 12  1  0  0  0  0
  4 13  2  0  0  0  0
  5 15  2  0  0  0  0
  6 11  1  0  0  0  0
  6 13  1  0  0  0  0
  6 29  1  0  0  0  0
  7 11  1  0  0  0  0
  7 15  1  0  0  0  0
  7 30  1  0  0  0  0
  8 13  1  0  0  0  0
  8 14  1  0  0  0  0
  8 31  1  0  0  0  0
  9 10  2  0  0  0  0
  9 18  1  0  0  0  0
 10 22  1  0  0  0  0
 11 12  1  0  0  0  0
 11 28  1  0  0  0  0
 14 16  2  0  0  0  0
 14 17  1  0  0  0  0
 15 21  1  0  0  0  0
 16 19  1  0  0  0  0
 16 32  1  0  0  0  0
 17 20  2  0  0  0  0
 17 33  1  0  0  0  0
 18 19  2  0  0  0  0
 18 20  1  0  0  0  0
 19 34  1  0  0  0  0
 20 35  1  0  0  0  0
 21 36  1  0  0  0  0
 21 37  1  0  0  0  0
 21 38  1  0  0  0  0
 22 23  2  0  0  0  0
 22 24  1  0  0  0  0
 23 25  1  0  0  0  0
 23 39  1  0  0  0  0
 24 26  2  0  0  0  0
 24 40  1  0  0  0  0
 25 27  2  0  0  0  0
 25 41  1  0  0  0  0
 26 27  1  0  0  0  0
 26 42  1  0  0  0  0
 27 43  1  0  0  0  0
M  END
> <Activity>
6.679

> <Mapped(file=504699.csv.activities,property=Cached(PUBCHEM_COMPOUND_CID))>
6.679

> <PUBCHEM_ATOM_DEF_STEREO_COUNT>
0

> <PUBCHEM_ATOM_UDEF_STEREO_COUNT>
1

> <PUBCHEM_BONDANNOTATIONS>
11  12  3
14  16  8
14  17  8
16  19  8
17  20  8
18  19  8
18  20  8
22  23  8
22  24  8
23  25  8
24  26  8
25  27  8
26  27  8

> <PUBCHEM_BOND_DEF_STEREO_COUNT>
0

> <PUBCHEM_BOND_UDEF_STEREO_COUNT>
0

> <PUBCHEM_CACTVS_COMPLEXITY>
529

> <PUBCHEM_CACTVS_HBOND_ACCEPTOR>
4

> <PUBCHEM_CACTVS_HBOND_DONOR>
3

> <PUBCHEM_CACTVS_ROTATABLE_BOND>
5

> <PUBCHEM_CACTVS_SUBSKEYS>
AAADceB7oABGAAAAAAAAAAAAAAAAAAAAAAAwYAAAAAAAAAABQAAAHgYYAAAACArBkIQzwILAAACOACVSUACCAAAhAgkIiIAIZIiIICLAkZHEIAholwLIyCcQAAAAAACAAAAAAAAAAQAAAAAAAAAAAAAAAA==

> <PUBCHEM_CACTVS_TAUTO_COUNT>
10

> <PUBCHEM_CACTVS_TPSA>
110

> <PUBCHEM_COMPONENT_COUNT>
1

> <PUBCHEM_COMPOUND_CANONICALIZED>
1

> <PUBCHEM_COMPOUND_CID>
2830086

> <PUBCHEM_COORDINATE_TYPE>
1
5
255

> <PUBCHEM_EXACT_MASS>
443.014114

> <PUBCHEM_HEAVY_ATOM_COUNT>
27

> <PUBCHEM_ISOTOPIC_ATOM_COUNT>
0

> <PUBCHEM_IUPAC_CAS_NAME>
N-[2,2,2-trichloro-1-[[(4-phenyldiazenylanilino)-sulfanylidenemethyl]amino]ethyl]acetamide

> <PUBCHEM_IUPAC_INCHI>
InChI=1S/C17H16Cl3N5OS/c1-11(26)21-15(17(18,19)20)23-16(27)22-12-7-9-14(10-8-12)25-24-13-5-3-2-4-6-13/h2-10,15H,1H3,(H,21,26)(H2,22,23,27)

> <PUBCHEM_IUPAC_INCHIKEY>
XGFZZURANXHOPT-UHFFFAOYSA-N

> <PUBCHEM_IUPAC_NAME>
N-[2,2,2-trichloro-1-[(4-phenyldiazenylphenyl)carbamothioylamino]ethyl]acetamide

> <PUBCHEM_IUPAC_OPENEYE_NAME>
N-[2,2,2-trichloro-1-[(4-phenylazophenyl)carbamothioylamino]ethyl]acetamide

> <PUBCHEM_IUPAC_SYSTEMATIC_NAME>
N-[2,2,2-tris(chloranyl)-1-[(4-phenyldiazenylphenyl)carbamothioylamino]ethyl]ethanamide

> <PUBCHEM_IUPAC_TRADITIONAL_NAME>
N-[2,2,2-trichloro-1-[(4-phenylazophenyl)thiocarbamoylamino]ethyl]acetamide

> <PUBCHEM_MOLECULAR_FORMULA>
C17H16Cl3N5OS

> <PUBCHEM_MOLECULAR_WEIGHT>
444.76584

> <PUBCHEM_MONOISOTOPIC_WEIGHT>
443.014114

> <PUBCHEM_OPENEYE_CAN_SMILES>
CC(=O)NC(C(Cl)(Cl)Cl)NC(=S)NC1=CC=C(C=C1)N=NC2=CC=CC=C2

> <PUBCHEM_OPENEYE_ISO_SMILES>
CC(=O)NC(C(Cl)(Cl)Cl)NC(=S)NC1=CC=C(C=C1)N=NC2=CC=CC=C2

> <PUBCHEM_TOTAL_CHARGE>
0

> <PUBCHEM_XLOGP3_AA>
4.6

$$$$
Written by BCL::WriteToMDL,1474465
MBcorina  10171218483D 1   1.00000     0.00000 
CORINA 3.49 0026  01.06.2011
 30 31  0  0  0  0  0  0  0  0999 V2000
    3.4104   -1.4357    3.6129 Cl  0  0  0  1  0  1  0  0  0  0  0  0
    0.9336   -1.9740    5.4940 Cl  0  0  0  1  0  1  0  0  0  0  0  0
   -0.0176    1.4478    0.0100 O   0  0  0  1  0  2  0  0  0  0  0  0
    2.2018    1.4280   -0.0113 O   0  0  0  1  0  1  0  0  0  0  0  0
    2.4582   -0.4719    0.9844 O   0  0  0  1  0  1  0  0  0  0  0  0
    0.2615   -0.4964    1.3572 N   0  0  0  1  0  3  0  0  0  0  0  0
   -0.7300   -0.7225    2.1406 N   0  0  0  1  0  2  0  0  0  0  0  0
    0.0021   -0.0041    0.0020 C   0  0  0  1  0  4  0  0  0  0  0  0
    1.2315    3.5518    0.0094 C   0  0  0  1  0  3  0  0  0  0  0  0
    1.3388    6.3190    0.0114 C   0  0  0  1  0  3  0  0  0  0  0  0
    2.4651    4.2057    0.0011 C   0  0  0  1  0  3  0  0  0  0  0  0
    0.0522    4.2993    0.0189 C   0  0  0  1  0  3  0  0  0  0  0  0
    2.5113    5.5844    0.0024 C   0  0  0  1  0  3  0  0  0  0  0  0
    0.1130    5.6774    0.0200 C   0  0  0  1  0  3  0  0  0  0  0  0
    1.1742    2.0756    0.0020 C   0  0  0  1  0  3  0  0  0  0  0  0
    1.5341   -0.6947    1.7505 C   0  0  0  1  0  3  0  0  0  0  0  0
    1.3972    7.8249    0.0122 C   0  0  0  1  0  4  0  0  0  0  0  0
    1.7884   -1.1633    3.0574 C   0  0  0  1  0  3  0  0  0  0  0  0
    0.7133   -1.3963    3.8719 C   0  0  0  1  0  3  0  0  0  0  0  0
   -0.5744   -1.1610    3.3585 C   0  0  0  1  0  3  0  0  0  0  0  0
   -0.9619   -0.3786   -0.3423 H   0  0  0  1  0  1  0  0  0  0  0  0
    0.7878   -0.3531   -0.6680 H   0  0  0  1  0  1  0  0  0  0  0  0
    3.3811    3.6335   -0.0059 H   0  0  0  1  0  1  0  0  0  0  0  0
   -0.9053    3.7997    0.0249 H   0  0  0  1  0  1  0  0  0  0  0  0
    3.4648    6.0915   -0.0044 H   0  0  0  1  0  1  0  0  0  0  0  0
   -0.7984    6.2569    0.0270 H   0  0  0  1  0  1  0  0  0  0  0  0
    1.4040    8.1888   -1.0153 H   0  0  0  1  0  1  0  0  0  0  0  0
    0.5257    8.2220    0.5326 H   0  0  0  1  0  1  0  0  0  0  0  0
    2.3043    8.1531    0.5198 H   0  0  0  1  0  1  0  0  0  0  0  0
   -1.4399   -1.3361    3.9802 H   0  0  0  1  0  1  0  0  0  0  0  0
  1 18  1  0  0  0  0
  2 19  1  0  0  0  0
  3  8  1  0  0  0  0
  3 15  1  0  0  0  0
  4 15  2  0  0  0  0
  5 16  2  0  0  0  0
  6  7  1  0  0  0  0
  6  8  1  0  0  0  0
  6 16  1  0  0  0  0
  7 20  2  0  0  0  0
  8 21  1  0  0  0  0
  8 22  1  0  0  0  0
  9 11  2  0  0  0  0
  9 12  1  0  0  0  0
  9 15  1  0  0  0  0
 10 13  2  0  0  0  0
 10 14  1  0  0  0  0
 10 17  1  0  0  0  0
 11 13  1  0  0  0  0
 11 23  1  0  0  0  0
 12 14  2  0  0  0  0
 12 24  1  0  0  0  0
 13 25  1  0  0  0  0
 14 26  1  0  0  0  0
 16 18  1  0  0  0  0
 17 27  1  0  0  0  0
 17 28  1  0  0  0  0
 17 29  1  0  0  0  0
 18 19  2  0  0  0  0
 19 20  1  0  0  0  0
 20 30  1  0  0  0  0
M  END
> <Activity>
6.125

> <Mapped(file=504699.csv.activities,property=Cached(PUBCHEM_COMPOUND_CID))>
6.125

> <PUBCHEM_ATOM_DEF_STEREO_COUNT>
0

> <PUBCHEM_ATOM_UDEF_STEREO_COUNT>
0

> <PUBCHEM_BONDANNOTATIONS>
10  13  8
10  14  8
11  13  8
12  14  8
16  18  8
18  19  8
19  20  8
6  16  8
6  7  8
7  20  8
9  11  8
9  12  8

> <PUBCHEM_BOND_DEF_STEREO_COUNT>
0

> <PUBCHEM_BOND_UDEF_STEREO_COUNT>
0

> <PUBCHEM_CACTVS_COMPLEXITY>
468

> <PUBCHEM_CACTVS_HBOND_ACCEPTOR>
4

> <PUBCHEM_CACTVS_HBOND_DONOR>
0

> <PUBCHEM_CACTVS_ROTATABLE_BOND>
4

> <PUBCHEM_CACTVS_SUBSKEYS>
AAADccBzMAAGAAAAAAAAAAAAAAAAAAAAAAAwQAAAAAAAAAABAAAAHgIIAAAADALBmAYyCIIABACoAjHzGACSAAAkAAAaiAEICNhIJjKANRjIMQAkygEIqYeIyDCOQAAAAAAAAACAAAAAAAAAAAAAAAAAAA==

> <PUBCHEM_CACTVS_TAUTO_COUNT>
3

> <PUBCHEM_CACTVS_TPSA>
59

> <PUBCHEM_COMPONENT_COUNT>
1

> <PUBCHEM_COMPOUND_CANONICALIZED>
1

> <PUBCHEM_COMPOUND_CID>
1474465

> <PUBCHEM_COORDINATE_TYPE>
1
5
255

> <PUBCHEM_EXACT_MASS>
312.006848

> <PUBCHEM_HEAVY_ATOM_COUNT>
20

> <PUBCHEM_ISOTOPIC_ATOM_COUNT>
0

> <PUBCHEM_IUPAC_CAS_NAME>
4-methylbenzoic acid (4,5-dichloro-6-oxo-1-pyridazinyl)methyl ester

> <PUBCHEM_IUPAC_INCHI>
InChI=1S/C13H10Cl2N2O3/c1-8-2-4-9(5-3-8)13(19)20-7-17-12(18)11(15)10(14)6-16-17/h2-6H,7H2,1H3

> <PUBCHEM_IUPAC_INCHIKEY>
FLFFUOCCWRXKSU-UHFFFAOYSA-N

> <PUBCHEM_IUPAC_NAME>
(4,5-dichloro-6-oxopyridazin-1-yl)methyl 4-methylbenzoate

> <PUBCHEM_IUPAC_OPENEYE_NAME>
(4,5-dichloro-6-oxo-pyridazin-1-yl)methyl 4-methylbenzoate

> <PUBCHEM_IUPAC_SYSTEMATIC_NAME>
[4,5-bis(chloranyl)-6-oxidanylidene-pyridazin-1-yl]methyl 4-methylbenzoate

> <PUBCHEM_IUPAC_TRADITIONAL_NAME>
4-methylbenzoic acid (4,5-dichloro-6-keto-pyridazin-1-yl)methyl ester

> <PUBCHEM_MOLECULAR_FORMULA>
C13H10Cl2N2O3

> <PUBCHEM_MOLECULAR_WEIGHT>
313.1361

> <PUBCHEM_MONOISOTOPIC_WEIGHT>
312.006848

> <PUBCHEM_OPENEYE_CAN_SMILES>
CC1=CC=C(C=C1)C(=O)OCN2C(=O)C(=C(C=N2)Cl)Cl

> <PUBCHEM_OPENEYE_ISO_SMILES>
CC1=CC=C(C=C1)C(=O)OCN2C(=O)C(=C(C=N2)Cl)Cl

> <PUBCHEM_TOTAL_CHARGE>
0

> <PUBCHEM_XLOGP3_AA>
3.2

$$$$
Written by BCL::WriteToMDL,2102506
MBcorina  10171218483D 1   1.00000     0.00000 
CORINA 3.49 0026  01.06.2011
 38 41  0  0  0  0  0  0  0  0999 V2000
   -0.0218    1.7546    0.0117 S   0  0  0  1  0  2  0  0  0  0  0  0
    1.9919    7.0048    0.0199 S   0  0  0  1  0  2  0  0  0  0  0  0
    3.7367    3.0049   -0.0183 O   0  0  0  1  0  1  0  0  0  0  0  0
   -0.8108   -1.1068    0.0039 N   0  0  0  1  0  3  0  0  0  0  0  0
    0.0016   -2.2442   -0.0100 N   0  0  0  1  0  2  0  0  0  0  0  0
    1.8994    4.2548    0.0064 N   0  0  0  1  0  3  0  0  0  0  0  0
    3.9418    5.4799   -0.0074 N   0  0  0  1  0  2  0  0  0  0  0  0
    1.3119   -0.4552   -0.0129 C   0  0  0  1  0  3  0  0  0  0  0  0
    0.0021   -0.0041    0.0020 C   0  0  0  1  0  3  0  0  0  0  0  0
    1.2498   -1.8840   -0.0200 C   0  0  0  1  0  3  0  0  0  0  0  0
    2.2496    0.5856   -0.0163 C   0  0  0  1  0  3  0  0  0  0  0  0
    1.7326    1.8235   -0.0047 C   0  0  0  1  0  3  0  0  0  0  0  0
   -2.2115   -1.0964    0.0166 C   0  0  0  1  0  3  0  0  0  0  0  0
    2.4341   -2.8158   -0.0355 C   0  0  0  1  0  4  0  0  0  0  0  0
    2.5208    3.0589   -0.0060 C   0  0  0  1  0  3  0  0  0  0  0  0
   -2.9209   -2.0719   -0.6715 C   0  0  0  1  0  3  0  0  0  0  0  0
   -2.8936   -0.1138    0.7220 C   0  0  0  1  0  3  0  0  0  0  0  0
   -4.3018   -2.0588   -0.6571 C   0  0  0  1  0  3  0  0  0  0  0  0
   -4.2746   -0.1061    0.7326 C   0  0  0  1  0  3  0  0  0  0  0  0
   -4.9782   -1.0754    0.0413 C   0  0  0  1  0  3  0  0  0  0  0  0
    2.6465    5.4255    0.0051 C   0  0  0  1  0  3  0  0  0  0  0  0
    3.6152    7.6892    0.0074 C   0  0  0  1  0  3  0  0  0  0  0  0
    4.4892    6.6811   -0.0065 C   0  0  0  1  0  3  0  0  0  0  0  0
    3.9570    9.1569    0.0109 C   0  0  0  1  0  4  0  0  0  0  0  0
    3.3142    0.4041   -0.0278 H   0  0  0  1  0  1  0  0  0  0  0  0
    2.7103   -3.0352   -1.0669 H   0  0  0  1  0  1  0  0  0  0  0  0
    3.2746   -2.3437    0.4731 H   0  0  0  1  0  1  0  0  0  0  0  0
    2.1740   -3.7425    0.4759 H   0  0  0  1  0  1  0  0  0  0  0  0
   -2.3932   -2.8398   -1.2177 H   0  0  0  1  0  1  0  0  0  0  0  0
   -2.3447    0.6435    1.2621 H   0  0  0  1  0  1  0  0  0  0  0  0
    0.9304    4.2977    0.0162 H   0  0  0  1  0  1  0  0  0  0  0  0
   -4.8541   -2.8173   -1.1920 H   0  0  0  1  0  1  0  0  0  0  0  0
   -4.8057    0.6578    1.2810 H   0  0  0  1  0  1  0  0  0  0  0  0
   -6.0581   -1.0669    0.0505 H   0  0  0  1  0  1  0  0  0  0  0  0
    5.5581    6.8353   -0.0163 H   0  0  0  1  0  1  0  0  0  0  0  0
    3.0386    9.7438    0.0230 H   0  0  0  1  0  1  0  0  0  0  0  0
    4.5488    9.3900    0.8961 H   0  0  0  1  0  1  0  0  0  0  0  0
    4.5309    9.3985   -0.8837 H   0  0  0  1  0  1  0  0  0  0  0  0
  1  9  1  0  0  0  0
  1 12  1  0  0  0  0
  2 21  1  0  0  0  0
  2 22  1  0  0  0  0
  3 15  2  0  0  0  0
  4  5  1  0  0  0  0
  4  9  1  0  0  0  0
  4 13  1  0  0  0  0
  5 10  2  0  0  0  0
  6 15  1  0  0  0  0
  6 21  1  0  0  0  0
  6 31  1  0  0  0  0
  7 21  2  0  0  0  0
  7 23  1  0  0  0  0
  8  9  2  0  0  0  0
  8 10  1  0  0  0  0
  8 11  1  0  0  0  0
 10 14  1  0  0  0  0
 11 12  2  0  0  0  0
 11 25  1  0  0  0  0
 12 15  1  0  0  0  0
 13 16  2  0  0  0  0
 13 17  1  0  0  0  0
 14 26  1  0  0  0  0
 14 27  1  0  0  0  0
 14 28  1  0  0  0  0
 16 18  1  0  0  0  0
 16 29  1  0  0  0  0
 17 19  2  0  0  0  0
 17 30  1  0  0  0  0
 18 20  2  0  0  0  0
 18 32  1  0  0  0  0
 19 20  1  0  0  0  0
 19 33  1  0  0  0  0
 20 34  1  0  0  0  0
 22 23  2  0  0  0  0
 22 24  1  0  0  0  0
 23 35  1  0  0  0  0
 24 36  1  0  0  0  0
 24 37  1  0  0  0  0
 24 38  1  0  0  0  0
M  END
> <Activity>
2.21

> <Mapped(file=504701.csv.activities,property=Cached(PUBCHEM_COMPOUND_CID))>
2.21

> <PUBCHEM_ATOM_DEF_STEREO_COUNT>
0

> <PUBCHEM_ATOM_UDEF_STEREO_COUNT>
0

> <PUBCHEM_BONDANNOTATIONS>
1  12  8
1  9  8
11  12  8
13  16  8
13  17  8
16  18  8
17  19  8
18  20  8
19  20  8
2  21  8
2  22  8
22  23  8
4  5  8
4  9  8
5  10  8
7  21  8
7  23  8
8  10  8
8  11  8
8  9  8

> <PUBCHEM_BOND_DEF_STEREO_COUNT>
0

> <PUBCHEM_BOND_UDEF_STEREO_COUNT>
0

> <PUBCHEM_CACTVS_COMPLEXITY>
474

> <PUBCHEM_CACTVS_HBOND_ACCEPTOR>
4

> <PUBCHEM_CACTVS_HBOND_DONOR>
1

> <PUBCHEM_CACTVS_ROTATABLE_BOND>
3

> <PUBCHEM_CACTVS_SUBSKEYS>
AAADccB7oABgAAAAAAAAAAAAAAAAAWLEgAAwAAAAAAAWAAAB/gAAHgQYAAAADAjB3gQ/0dLIEAiuAzV3dACT9Kl1CjlZ2D04ZNiIIPLg3dGEpQxoiQLoyacYCQAeAAAAAAAAAAAAAAAAAAAAAAAAAAAAAA==

> <PUBCHEM_CACTVS_TAUTO_COUNT>
3

> <PUBCHEM_CACTVS_TPSA>
116

> <PUBCHEM_COMPONENT_COUNT>
1

> <PUBCHEM_COMPOUND_CANONICALIZED>
1

> <PUBCHEM_COMPOUND_CID>
2102506

> <PUBCHEM_COORDINATE_TYPE>
1
5
255

> <PUBCHEM_EXACT_MASS>
354.060903

> <PUBCHEM_HEAVY_ATOM_COUNT>
24

> <PUBCHEM_ISOTOPIC_ATOM_COUNT>
0

> <PUBCHEM_IUPAC_CAS_NAME>
3-methyl-N-(5-methyl-2-thiazolyl)-1-phenyl-5-thieno[2,3-c]pyrazolecarboxamide

> <PUBCHEM_IUPAC_INCHI>
InChI=1S/C17H14N4OS2/c1-10-9-18-17(23-10)19-15(22)14-8-13-11(2)20-21(16(13)24-14)12-6-4-3-5-7-12/h3-9H,1-2H3,(H,18,19,22)

> <PUBCHEM_IUPAC_INCHIKEY>
AXMYICLOWJCRNN-UHFFFAOYSA-N

> <PUBCHEM_IUPAC_NAME>
3-methyl-N-(5-methyl-1,3-thiazol-2-yl)-1-phenylthieno[2,3-c]pyrazole-5-carboxamide

> <PUBCHEM_IUPAC_OPENEYE_NAME>
3-methyl-N-(5-methylthiazol-2-yl)-1-phenyl-thieno[2,3-c]pyrazole-5-carboxamide

> <PUBCHEM_IUPAC_SYSTEMATIC_NAME>
3-methyl-N-(5-methyl-1,3-thiazol-2-yl)-1-phenyl-thieno[2,3-c]pyrazole-5-carboxamide

> <PUBCHEM_IUPAC_TRADITIONAL_NAME>
3-methyl-N-(5-methylthiazol-2-yl)-1-phenyl-thieno[2,3-c]pyrazole-5-carboxamide

> <PUBCHEM_MOLECULAR_FORMULA>
C17H14N4OS2

> <PUBCHEM_MOLECULAR_WEIGHT>
354.44926

> <PUBCHEM_MONOISOTOPIC_WEIGHT>
354.060903

> <PUBCHEM_OPENEYE_CAN_SMILES>
CC1=CN=C(S1)NC(=O)C2=CC3=C(S2)N(N=C3C)C4=CC=CC=C4

> <PUBCHEM_OPENEYE_ISO_SMILES>
CC1=CN=C(S1)NC(=O)C2=CC3=C(S2)N(N=C3C)C4=CC=CC=C4

> <PUBCHEM_TOTAL_CHARGE>
0

> <PUBCHEM_XLOGP3_AA>
4.6

$$$$
Written by BCL::WriteToMDL,6879390
MBcorina  10171218483D 1   1.00000     0.00000 
CORINA 3.49 0026  01.06.2011
 49 51  0  0  0  0  0  0  0  0999 V2000
   -0.0163    1.3535    0.0095 O   0  0  0  1  0  2  0  0  0  0  0  0
    2.4179   -2.7264   -0.0357 O   0  0  0  1  0  2  0  0  0  0  0  0
   -5.4263   -0.4876    0.0522 O   0  0  0  1  0  1  0  0  0  0  0  0
   -9.0121   -1.5583    0.0884 O   0  0  0  1  0  2  0  0  0  0  0  0
  -11.5977   -6.4099    0.0668 O   0  0  0  1  0  2  0  0  0  0  0  0
   -2.4785   -2.5752    0.0123 N   0  0  0  1  0  3  0  0  0  0  0  0
   -5.4199   -2.7100    0.0412 N   0  0  0  1  0  3  0  0  0  0  0  0
   -6.8202   -2.7551    0.0548 N   0  0  0  1  0  2  0  0  0  0  0  0
   -1.2047   -0.7275    0.0097 C   0  0  0  1  0  3  0  0  0  0  0  0
   -1.1746   -2.1359    0.0018 C   0  0  0  1  0  3  0  0  0  0  0  0
   -3.3177   -1.4744    0.0265 C   0  0  0  1  0  3  0  0  0  0  0  0
   -2.5642   -0.3416    0.0252 C   0  0  0  1  0  3  0  0  0  0  0  0
    0.0021   -0.0041    0.0020 C   0  0  0  1  0  3  0  0  0  0  0  0
    0.0485   -2.7973   -0.0134 C   0  0  0  1  0  3  0  0  0  0  0  0
    1.2269   -2.0734   -0.0213 C   0  0  0  1  0  3  0  0  0  0  0  0
    1.2034   -0.6806   -0.0131 C   0  0  0  1  0  3  0  0  0  0  0  0
   -4.7840   -1.5217    0.0408 C   0  0  0  1  0  3  0  0  0  0  0  0
   -8.9056   -3.9473    0.0695 C   0  0  0  1  0  3  0  0  0  0  0  0
    1.2479    2.0195    0.0010 C   0  0  0  1  0  4  0  0  0  0  0  0
   -9.6482   -2.7591    0.0827 C   0  0  0  1  0  3  0  0  0  0  0  0
   -9.5681   -5.1769    0.0642 C   0  0  0  1  0  3  0  0  0  0  0  0
   -7.4327   -3.8998    0.0552 C   0  0  0  1  0  3  0  0  0  0  0  0
  -10.9510   -5.2137    0.0720 C   0  0  0  1  0  3  0  0  0  0  0  0
    3.5988   -1.9218   -0.0431 C   0  0  0  1  0  4  0  0  0  0  0  0
  -11.0321   -2.8117    0.0903 C   0  0  0  1  0  3  0  0  0  0  0  0
  -11.6805   -4.0320    0.0846 C   0  0  0  1  0  3  0  0  0  0  0  0
   -9.8335   -0.3891    0.1018 C   0  0  0  1  0  4  0  0  0  0  0  0
  -13.0262   -6.3752    0.0754 C   0  0  0  1  0  4  0  0  0  0  0  0
   -2.9382    0.6716    0.0343 H   0  0  0  1  0  1  0  0  0  0  0  0
   -2.7626   -3.5027    0.0066 H   0  0  0  1  0  1  0  0  0  0  0  0
    0.0782   -3.8769   -0.0191 H   0  0  0  1  0  1  0  0  0  0  0  0
    2.1312   -0.1277   -0.0190 H   0  0  0  1  0  1  0  0  0  0  0  0
   -4.9082   -3.5339    0.0321 H   0  0  0  1  0  1  0  0  0  0  0  0
    1.8173    1.7294    0.8840 H   0  0  0  1  0  1  0  0  0  0  0  0
    1.8003    1.7390   -0.8958 H   0  0  0  1  0  1  0  0  0  0  0  0
    1.0905    3.0980    0.0083 H   0  0  0  1  0  1  0  0  0  0  0  0
   -9.0022   -6.0967    0.0537 H   0  0  0  1  0  1  0  0  0  0  0  0
   -6.8630   -4.8172    0.0450 H   0  0  0  1  0  1  0  0  0  0  0  0
    3.6013   -1.2884   -0.9302 H   0  0  0  1  0  1  0  0  0  0  0  0
    3.6183   -1.2968    0.8496 H   0  0  0  1  0  1  0  0  0  0  0  0
    4.4776   -2.5665   -0.0546 H   0  0  0  1  0  1  0  0  0  0  0  0
  -11.6059   -1.8968    0.1005 H   0  0  0  1  0  1  0  0  0  0  0  0
  -12.7600   -4.0670    0.0902 H   0  0  0  1  0  1  0  0  0  0  0  0
  -10.4579   -0.3940    0.9953 H   0  0  0  1  0  1  0  0  0  0  0  0
   -9.2015    0.4990    0.1052 H   0  0  0  1  0  1  0  0  0  0  0  0
  -10.4677   -0.3804   -0.7846 H   0  0  0  1  0  1  0  0  0  0  0  0
  -13.4145   -7.3937    0.0701 H   0  0  0  1  0  1  0  0  0  0  0  0
  -13.3717   -5.8594    0.9713 H   0  0  0  1  0  1  0  0  0  0  0  0
  -13.3821   -5.8461   -0.8086 H   0  0  0  1  0  1  0  0  0  0  0  0
  1 13  1  0  0  0  0
  1 19  1  0  0  0  0
  2 15  1  0  0  0  0
  2 24  1  0  0  0  0
  3 17  2  0  0  0  0
  4 20  1  0  0  0  0
  4 27  1  0  0  0  0
  5 23  1  0  0  0  0
  5 28  1  0  0  0  0
  6 10  1  0  0  0  0
  6 11  1  0  0  0  0
  6 30  1  0  0  0  0
  7  8  1  0  0  0  0
  7 17  1  0  0  0  0
  7 33  1  0  0  0  0
  8 22  2  0  0  0  0
  9 10  2  0  0  0  0
  9 12  1  0  0  0  0
  9 13  1  0  0  0  0
 10 14  1  0  0  0  0
 11 12  2  0  0  0  0
 11 17  1  0  0  0  0
 12 29  1  0  0  0  0
 13 16  2  0  0  0  0
 14 15  2  0  0  0  0
 14 31  1  0  0  0  0
 15 16  1  0  0  0  0
 16 32  1  0  0  0  0
 18 20  2  0  0  0  0
 18 21  1  0  0  0  0
 18 22  1  0  0  0  0
 19 34  1  0  0  0  0
 19 35  1  0  0  0  0
 19 36  1  0  0  0  0
 20 25  1  0  0  0  0
 21 23  2  0  0  0  0
 21 37  1  0  0  0  0
 22 38  1  0  0  0  0
 23 26  1  0  0  0  0
 24 39  1  0  0  0  0
 24 40  1  0  0  0  0
 24 41  1  0  0  0  0
 25 26  2  0  0  0  0
 25 42  1  0  0  0  0
 26 43  1  0  0  0  0
 27 44  1  0  0  0  0
 27 45  1  0  0  0  0
 27 46  1  0  0  0  0
 28 47  1  0  0  0  0
 28 48  1  0  0  0  0
 28 49  1  0  0  0  0
M  END
> <Activity>
1.133

> <Mapped(file=504701.csv.activities,property=Cached(PUBCHEM_COMPOUND_CID))>
1.133

> <PUBCHEM_ATOM_DEF_STEREO_COUNT>
0

> <PUBCHEM_ATOM_UDEF_STEREO_COUNT>
0

> <PUBCHEM_BONDANNOTATIONS>
10  14  8
11  12  8
13  16  8
14  15  8
15  16  8
18  20  8
18  21  8
20  25  8
21  23  8
23  26  8
25  26  8
6  10  8
6  11  8
9  10  8
9  12  8
9  13  8

> <PUBCHEM_BOND_DEF_STEREO_COUNT>
1

> <PUBCHEM_BOND_UDEF_STEREO_COUNT>
0

> <PUBCHEM_CACTVS_COMPLEXITY>
546

> <PUBCHEM_CACTVS_HBOND_ACCEPTOR>
6

> <PUBCHEM_CACTVS_HBOND_DONOR>
2

> <PUBCHEM_CACTVS_ROTATABLE_BOND>
7

> <PUBCHEM_CACTVS_SUBSKEYS>
AAADceB7OAAAAAAAAAAAAAAAAAAAAWAAAAAwYAAAAAAAAFgB9AAAHgAYAAAADAzBngYyxvLrlACoAzVzVACSiCAnIiAamSG2bNgMZ/LEtbuUMShn2B3I6Yf4/b/eIQABCgAKAABCAAIUABQAAAAAAAAAAA==

> <PUBCHEM_CACTVS_TAUTO_COUNT>
9

> <PUBCHEM_CACTVS_TPSA>
94.2

> <PUBCHEM_COMPONENT_COUNT>
1

> <PUBCHEM_COMPOUND_CANONICALIZED>
1

> <PUBCHEM_COMPOUND_CID>
6879390

> <PUBCHEM_COORDINATE_TYPE>
1
5
255

> <PUBCHEM_EXACT_MASS>
383.148121

> <PUBCHEM_HEAVY_ATOM_COUNT>
28

> <PUBCHEM_ISOTOPIC_ATOM_COUNT>
0

> <PUBCHEM_IUPAC_CAS_NAME>
N-[(E)-(2,5-dimethoxyphenyl)methylideneamino]-4,6-dimethoxy-1H-indole-2-carboxamide

> <PUBCHEM_IUPAC_INCHI>
InChI=1S/C20H21N3O5/c1-25-13-5-6-18(27-3)12(7-13)11-21-23-20(24)17-10-15-16(22-17)8-14(26-2)9-19(15)28-4/h5-11,22H,1-4H3,(H,23,24)/b21-11+

> <PUBCHEM_IUPAC_INCHIKEY>
MVNRBKINADTNIO-SRZZPIQSSA-N

> <PUBCHEM_IUPAC_NAME>
N-[(E)-(2,5-dimethoxyphenyl)methylideneamino]-4,6-dimethoxy-1H-indole-2-carboxamide

> <PUBCHEM_IUPAC_OPENEYE_NAME>
N-[(E)-(2,5-dimethoxyphenyl)methyleneamino]-4,6-dimethoxy-1H-indole-2-carboxamide

> <PUBCHEM_IUPAC_SYSTEMATIC_NAME>
N-[(E)-(2,5-dimethoxyphenyl)methylideneamino]-4,6-dimethoxy-1H-indole-2-carboxamide

> <PUBCHEM_IUPAC_TRADITIONAL_NAME>
N-[(E)-(2,5-dimethoxybenzylidene)amino]-4,6-dimethoxy-1H-indole-2-carboxamide

> <PUBCHEM_MOLECULAR_FORMULA>
C20H21N3O5

> <PUBCHEM_MOLECULAR_WEIGHT>
383.39784

> <PUBCHEM_MONOISOTOPIC_WEIGHT>
383.148121

> <PUBCHEM_OPENEYE_CAN_SMILES>
COC1=CC(=C(C=C1)OC)C=NNC(=O)C2=CC3=C(C=C(C=C3N2)OC)OC

> <PUBCHEM_OPENEYE_ISO_SMILES>
COC1=CC(=C(C=C1)OC)/C=N/NC(=O)C2=CC3=C(C=C(C=C3N2)OC)OC

> <PUBCHEM_TOTAL_CHARGE>
0

> <PUBCHEM_XLOGP3_AA>
3.2

$$$$
Written by BCL::WriteToMDL,1827856
MBcorina  10171218483D 1   1.00000     0.00000 
CORINA 3.49 0026  01.06.2011
 45 48  0  0  0  0  0  0  0  0999 V2000
    0.0430    1.7514   -0.5370 S   0  0  0  1  0  2  0  0  0  0  0  0
    3.8756    5.4602   -0.6051 O   0  0  0  1  0  2  0  0  0  0  0  0
   -2.6648   -2.8017   -0.9011 O   0  0  0  1  0  2  0  0  0  0  0  0
    3.3641    0.3138    0.4304 O   0  0  0  1  0  1  0  0  0  0  0  0
   -0.1179    8.0240   -0.3736 O   0  0  0  1  0  2  0  0  0  0  0  0
    1.2996   -0.3974   -0.0520 N   0  0  0  1  0  3  0  0  0  0  0  0
    1.2405   -1.8140    0.0375 N   0  0  0  1  0  2  0  0  0  0  0  0
   -0.7116   -1.0805   -0.5234 N   0  0  0  1  0  2  0  0  0  0  0  0
    0.0468   -0.0136   -0.4053 C   0  0  0  1  0  3  0  0  0  0  0  0
    1.7540    1.9297   -0.1064 C   0  0  0  1  0  3  0  0  0  0  0  0
    2.2153    0.5641    0.1143 C   0  0  0  1  0  3  0  0  0  0  0  0
    0.0145   -2.1737   -0.2538 C   0  0  0  1  0  3  0  0  0  0  0  0
   -0.4885   -3.5684   -0.2819 C   0  0  0  1  0  3  0  0  0  0  0  0
    1.7986    4.3770   -0.1026 C   0  0  0  1  0  3  0  0  0  0  0  0
    2.4734    3.0799   -0.0054 C   0  0  0  1  0  3  0  0  0  0  0  0
    2.5358    5.5364   -0.4038 C   0  0  0  1  0  3  0  0  0  0  0  0
   -1.8235   -3.8272   -0.6088 C   0  0  0  1  0  3  0  0  0  0  0  0
    0.4148    4.4677    0.0985 C   0  0  0  1  0  3  0  0  0  0  0  0
    0.3677   -4.6270    0.0117 C   0  0  0  1  0  3  0  0  0  0  0  0
    1.8868    6.7552   -0.4932 C   0  0  0  1  0  3  0  0  0  0  0  0
    0.5164    6.8271   -0.2858 C   0  0  0  1  0  3  0  0  0  0  0  0
   -0.2116    5.6775    0.0069 C   0  0  0  1  0  3  0  0  0  0  0  0
   -2.2847   -5.1335   -0.6330 C   0  0  0  1  0  3  0  0  0  0  0  0
   -0.1052   -5.9235   -0.0162 C   0  0  0  1  0  3  0  0  0  0  0  0
   -1.4278   -6.1760   -0.3345 C   0  0  0  1  0  3  0  0  0  0  0  0
    4.5566    6.6797   -0.9069 C   0  0  0  1  0  4  0  0  0  0  0  0
   -4.0142   -3.1421   -1.2259 C   0  0  0  1  0  4  0  0  0  0  0  0
   -1.5292    8.0283   -0.1490 C   0  0  0  1  0  4  0  0  0  0  0  0
    3.5418    3.0370    0.1464 H   0  0  0  1  0  1  0  0  0  0  0  0
   -0.1568    3.5800    0.3256 H   0  0  0  1  0  1  0  0  0  0  0  0
    1.4007   -4.4337    0.2605 H   0  0  0  1  0  1  0  0  0  0  0  0
    2.4462    7.6497   -0.7237 H   0  0  0  1  0  1  0  0  0  0  0  0
   -1.2783    5.7427    0.1622 H   0  0  0  1  0  1  0  0  0  0  0  0
   -3.3150   -5.3372   -0.8851 H   0  0  0  1  0  1  0  0  0  0  0  0
    0.5595   -6.7437    0.2112 H   0  0  0  1  0  1  0  0  0  0  0  0
   -1.7912   -7.1929   -0.3541 H   0  0  0  1  0  1  0  0  0  0  0  0
    4.1469    7.1079   -1.8217 H   0  0  0  1  0  1  0  0  0  0  0  0
    4.4235    7.3832   -0.0851 H   0  0  0  1  0  1  0  0  0  0  0  0
    5.6190    6.4781   -1.0442 H   0  0  0  1  0  1  0  0  0  0  0  0
   -4.0247   -3.7887   -2.1033 H   0  0  0  1  0  1  0  0  0  0  0  0
   -4.4699   -3.6640   -0.3845 H   0  0  0  1  0  1  0  0  0  0  0  0
   -4.5773   -2.2331   -1.4377 H   0  0  0  1  0  1  0  0  0  0  0  0
   -1.9098    9.0448   -0.2488 H   0  0  0  1  0  1  0  0  0  0  0  0
   -2.0156    7.3846   -0.8819 H   0  0  0  1  0  1  0  0  0  0  0  0
   -1.7385    7.6589    0.8548 H   0  0  0  1  0  1  0  0  0  0  0  0
  1  9  1  0  0  0  0
  1 10  1  0  0  0  0
  2 16  1  0  0  0  0
  2 26  1  0  0  0  0
  3 17  1  0  0  0  0
  3 27  1  0  0  0  0
  4 11  2  0  0  0  0
  5 21  1  0  0  0  0
  5 28  1  0  0  0  0
  6  7  1  0  0  0  0
  6  9  1  0  0  0  0
  6 11  1  0  0  0  0
  7 12  2  0  0  0  0
  8  9  2  0  0  0  0
  8 12  1  0  0  0  0
 10 11  1  0  0  0  0
 10 15  2  0  0  0  0
 12 13  1  0  0  0  0
 13 17  1  0  0  0  0
 13 19  2  0  0  0  0
 14 15  1  0  0  0  0
 14 16  2  0  0  0  0
 14 18  1  0  0  0  0
 15 29  1  0  0  0  0
 16 20  1  0  0  0  0
 17 23  2  0  0  0  0
 18 22  2  0  0  0  0
 18 30  1  0  0  0  0
 19 24  1  0  0  0  0
 19 31  1  0  0  0  0
 20 21  2  0  0  0  0
 20 32  1  0  0  0  0
 21 22  1  0  0  0  0
 22 33  1  0  0  0  0
 23 25  1  0  0  0  0
 23 34  1  0  0  0  0
 24 25  2  0  0  0  0
 24 35  1  0  0  0  0
 25 36  1  0  0  0  0
 26 37  1  0  0  0  0
 26 38  1  0  0  0  0
 26 39  1  0  0  0  0
 27 40  1  0  0  0  0
 27 41  1  0  0  0  0
 27 42  1  0  0  0  0
 28 43  1  0  0  0  0
 28 44  1  0  0  0  0
 28 45  1  0  0  0  0
M  END
> <Activity>
0.72286

> <Mapped(file=504701.csv.activities,property=Cached(PUBCHEM_COMPOUND_CID))>
0.72286

> <PUBCHEM_ATOM_DEF_STEREO_COUNT>
0

> <PUBCHEM_ATOM_UDEF_STEREO_COUNT>
0

> <PUBCHEM_BONDANNOTATIONS>
1  10  8
1  9  8
10  11  8
13  17  8
13  19  8
14  16  8
14  18  8
16  20  8
17  23  8
18  22  8
19  24  8
20  21  8
21  22  8
23  25  8
24  25  8
6  11  8
6  7  8
6  9  8
7  12  8
8  12  8
8  9  8

> <PUBCHEM_BOND_DEF_STEREO_COUNT>
1

> <PUBCHEM_BOND_UDEF_STEREO_COUNT>
0

> <PUBCHEM_CACTVS_COMPLEXITY>
604

> <PUBCHEM_CACTVS_HBOND_ACCEPTOR>
5

> <PUBCHEM_CACTVS_HBOND_DONOR>
0

> <PUBCHEM_CACTVS_ROTATABLE_BOND>
5

> <PUBCHEM_CACTVS_SUBSKEYS>
AAADceB7OABAAAAAAAAAAAAAAAAAAWLAAAAwYAAAAAAWAAAB0AAAHgQIAAAADASB2wIzFoYIFAiqAiNyNACS2AtgILAfiCAmDNiML6KEuRuEMChvyRcIqYeQ4CwOIAAACAAIAABAAAAQABAAAAAAAAAAAA==

> <PUBCHEM_CACTVS_TAUTO_COUNT>
1

> <PUBCHEM_CACTVS_TPSA>
101

> <PUBCHEM_COMPONENT_COUNT>
1

> <PUBCHEM_COMPOUND_CANONICALIZED>
1

> <PUBCHEM_COMPOUND_CID>
1827856

> <PUBCHEM_COORDINATE_TYPE>
1
5
255

> <PUBCHEM_EXACT_MASS>
395.093977

> <PUBCHEM_HEAVY_ATOM_COUNT>
28

> <PUBCHEM_ISOTOPIC_ATOM_COUNT>
0

> <PUBCHEM_IUPAC_CAS_NAME>
(5Z)-5-[(2,4-dimethoxyphenyl)methylidene]-2-(2-methoxyphenyl)-6-thiazolo[3,2-b][1,2,4]triazolone

> <PUBCHEM_IUPAC_INCHI>
InChI=1S/C20H17N3O4S/c1-25-13-9-8-12(16(11-13)27-3)10-17-19(24)23-20(28-17)21-18(22-23)14-6-4-5-7-15(14)26-2/h4-11H,1-3H3/b17-10-

> <PUBCHEM_IUPAC_INCHIKEY>
OTKMWGHZDAZYAF-YVLHZVERSA-N

> <PUBCHEM_IUPAC_NAME>
(5Z)-5-[(2,4-dimethoxyphenyl)methylidene]-2-(2-methoxyphenyl)-[1,3]thiazolo[3,2-b][1,2,4]triazol-6-one

> <PUBCHEM_IUPAC_OPENEYE_NAME>
(5Z)-5-[(2,4-dimethoxyphenyl)methylene]-2-(2-methoxyphenyl)thiazolo[3,2-b][1,2,4]triazol-6-one

> <PUBCHEM_IUPAC_SYSTEMATIC_NAME>
(5Z)-5-[(2,4-dimethoxyphenyl)methylidene]-2-(2-methoxyphenyl)-[1,3]thiazolo[3,2-b][1,2,4]triazol-6-one

> <PUBCHEM_IUPAC_TRADITIONAL_NAME>
(5Z)-5-(2,4-dimethoxybenzylidene)-2-(2-methoxyphenyl)thiazolo[3,2-b][1,2,4]triazol-6-one

> <PUBCHEM_MOLECULAR_FORMULA>
C20H17N3O4S

> <PUBCHEM_MOLECULAR_WEIGHT>
395.43168

> <PUBCHEM_MONOISOTOPIC_WEIGHT>
395.093977

> <PUBCHEM_OPENEYE_CAN_SMILES>
COC1=CC(=C(C=C1)C=C2C(=O)N3C(=NC(=N3)C4=CC=CC=C4OC)S2)OC

> <PUBCHEM_OPENEYE_ISO_SMILES>
COC1=CC(=C(C=C1)/C=C\2/C(=O)N3C(=NC(=N3)C4=CC=CC=C4OC)S2)OC

> <PUBCHEM_TOTAL_CHARGE>
0

> <PUBCHEM_XLOGP3_AA>
4.2

$$$$
Written by BCL::WriteToMDL,1186195
MBcorina  10171218483D 1   1.00000     0.00000 
CORINA 3.49 0026  01.06.2011
 42 46  0  0  0  0  0  0  0  0999 V2000
   -2.2581    1.3953    0.0199 O   0  0  0  1  0  1  0  0  0  0  0  0
   -0.0169    1.3945    0.0097 N   0  0  0  1  0  3  0  0  0  0  0  0
    0.0021   -0.0041    0.0020 N   0  0  0  1  0  2  0  0  0  0  0  0
    1.0541   -2.0834   -0.0189 N   0  0  0  1  0  3  0  0  0  0  0  0
    1.1556    3.4386    0.0087 N   0  0  0  1  0  2  0  0  0  0  0  0
    0.1610   -4.8827   -1.1679 N   0  0  0  1  0  2  0  0  0  0  0  0
    2.4271    1.3982   -0.0132 C   0  0  0  1  0  3  0  0  0  0  0  0
    1.1430    2.1209    0.0025 C   0  0  0  1  0  3  0  0  0  0  0  0
    2.4061   -0.0123   -0.0207 C   0  0  0  1  0  3  0  0  0  0  0  0
    1.1065   -0.6971   -0.0119 C   0  0  0  1  0  3  0  0  0  0  0  0
   -1.2211    3.4913    0.0268 C   0  0  0  1  0  3  0  0  0  0  0  0
   -1.2162    2.0264    0.0188 C   0  0  0  1  0  3  0  0  0  0  0  0
    0.0258    4.1625    0.0229 C   0  0  0  1  0  3  0  0  0  0  0  0
    3.6447    2.0750   -0.0216 C   0  0  0  1  0  3  0  0  0  0  0  0
    3.6072   -0.7195   -0.0362 C   0  0  0  1  0  3  0  0  0  0  0  0
   -0.2413   -2.7676   -0.0106 C   0  0  0  1  0  4  0  0  0  0  0  0
    4.8211    1.3560   -0.0367 C   0  0  0  1  0  3  0  0  0  0  0  0
    4.8018   -0.0315   -0.0440 C   0  0  0  1  0  3  0  0  0  0  0  0
   -2.4061    4.2275    0.0360 C   0  0  0  1  0  3  0  0  0  0  0  0
    0.0475    5.5622    0.0289 C   0  0  0  1  0  3  0  0  0  0  0  0
   -0.0221   -4.2585   -0.0206 C   0  0  0  1  0  3  0  0  0  0  0  0
   -2.3504    5.5933    0.0428 C   0  0  0  1  0  3  0  0  0  0  0  0
   -1.1286    6.2557    0.0429 C   0  0  0  1  0  3  0  0  0  0  0  0
   -0.0158   -4.9559    1.1723 C   0  0  0  1  0  3  0  0  0  0  0  0
    0.1868   -6.3276    1.1521 C   0  0  0  1  0  3  0  0  0  0  0  0
    0.3569   -6.1853   -1.2250 C   0  0  0  1  0  3  0  0  0  0  0  0
    0.3761   -6.9486   -0.0727 C   0  0  0  1  0  3  0  0  0  0  0  0
    3.6670    3.1547   -0.0167 H   0  0  0  1  0  1  0  0  0  0  0  0
    3.6020   -1.7995   -0.0417 H   0  0  0  1  0  1  0  0  0  0  0  0
    1.8752   -2.5998   -0.0292 H   0  0  0  1  0  1  0  0  0  0  0  0
   -0.7943   -2.4877    0.8860 H   0  0  0  1  0  1  0  0  0  0  0  0
   -0.8107   -2.4781   -0.8938 H   0  0  0  1  0  1  0  0  0  0  0  0
    5.7667    1.8777   -0.0436 H   0  0  0  1  0  1  0  0  0  0  0  0
    5.7329   -0.5785   -0.0560 H   0  0  0  1  0  1  0  0  0  0  0  0
   -3.3604    3.7220    0.0373 H   0  0  0  1  0  1  0  0  0  0  0  0
    0.9894    6.0906    0.0228 H   0  0  0  1  0  1  0  0  0  0  0  0
   -3.2669    6.1646    0.0495 H   0  0  0  1  0  1  0  0  0  0  0  0
   -1.1092    7.3355    0.0475 H   0  0  0  1  0  1  0  0  0  0  0  0
   -0.1663   -4.4391    2.1086 H   0  0  0  1  0  1  0  0  0  0  0  0
    0.1971   -6.8984    2.0688 H   0  0  0  1  0  1  0  0  0  0  0  0
    0.5029   -6.6616   -2.1832 H   0  0  0  1  0  1  0  0  0  0  0  0
    0.5370   -8.0152   -0.1260 H   0  0  0  1  0  1  0  0  0  0  0  0
  1 12  2  0  0  0  0
  2  3  1  0  0  0  0
  2  8  1  0  0  0  0
  2 12  1  0  0  0  0
  3 10  2  0  0  0  0
  4 10  1  0  0  0  0
  4 16  1  0  0  0  0
  4 30  1  0  0  0  0
  5  8  2  0  0  0  0
  5 13  1  0  0  0  0
  6 21  1  0  0  0  0
  6 26  2  0  0  0  0
  7  8  1  0  0  0  0
  7  9  1  0  0  0  0
  7 14  2  0  0  0  0
  9 10  1  0  0  0  0
  9 15  2  0  0  0  0
 11 12  1  0  0  0  0
 11 13  1  0  0  0  0
 11 19  2  0  0  0  0
 13 20  2  0  0  0  0
 14 17  1  0  0  0  0
 14 28  1  0  0  0  0
 15 18  1  0  0  0  0
 15 29  1  0  0  0  0
 16 21  1  0  0  0  0
 16 31  1  0  0  0  0
 16 32  1  0  0  0  0
 17 18  2  0  0  0  0
 17 33  1  0  0  0  0
 18 34  1  0  0  0  0
 19 22  1  0  0  0  0
 19 35  1  0  0  0  0
 20 23  1  0  0  0  0
 20 36  1  0  0  0  0
 21 24  2  0  0  0  0
 22 23  2  0  0  0  0
 22 37  1  0  0  0  0
 23 38  1  0  0  0  0
 24 25  1  0  0  0  0
 24 39  1  0  0  0  0
 25 27  2  0  0  0  0
 25 40  1  0  0  0  0
 26 27  1  0  0  0  0
 26 41  1  0  0  0  0
 27 42  1  0  0  0  0
M  END
> <Activity>
4.958

> <Mapped(file=504701.csv.activities,property=Cached(PUBCHEM_COMPOUND_CID))>
4.958

> <PUBCHEM_ATOM_DEF_STEREO_COUNT>
0

> <PUBCHEM_ATOM_UDEF_STEREO_COUNT>
0

> <PUBCHEM_BONDANNOTATIONS>
11  12  8
11  13  8
11  19  8
13  20  8
14  17  8
15  18  8
17  18  8
19  22  8
2  12  8
2  3  8
2  8  8
20  23  8
21  24  8
22  23  8
24  25  8
25  27  8
26  27  8
3  10  8
5  13  8
5  8  8
6  21  8
6  26  8
7  14  8
7  8  8
7  9  8
9  10  8
9  15  8

> <PUBCHEM_BOND_DEF_STEREO_COUNT>
0

> <PUBCHEM_BOND_UDEF_STEREO_COUNT>
0

> <PUBCHEM_CACTVS_COMPLEXITY>
645

> <PUBCHEM_CACTVS_HBOND_ACCEPTOR>
4

> <PUBCHEM_CACTVS_HBOND_DONOR>
1

> <PUBCHEM_CACTVS_ROTATABLE_BOND>
3

> <PUBCHEM_CACTVS_SUBSKEYS>
AAADccB7oAAAAAAAAAAAAAAAAAAAAAAAAAA8YIECAAAAAACB0AAAHgAYAAAADAjBngQ9wJLIEACoAzd3dACSgCE1AiAb2KE4ZNgIYPrA3ZGUIYhgjADIyccYiICOgAAAAAASAAAAAAAAACQAAAAAAAAAAA==

> <PUBCHEM_CACTVS_TAUTO_COUNT>
2

> <PUBCHEM_CACTVS_TPSA>
70

> <PUBCHEM_COMPONENT_COUNT>
1

> <PUBCHEM_COMPOUND_CANONICALIZED>
1

> <PUBCHEM_COMPOUND_CID>
1186195

> <PUBCHEM_COORDINATE_TYPE>
1
5
255

> <PUBCHEM_EXACT_MASS>
353.12766

> <PUBCHEM_HEAVY_ATOM_COUNT>
27

> <PUBCHEM_ISOTOPIC_ATOM_COUNT>
0

> <PUBCHEM_IUPAC_CAS_NAME>
5-(2-pyridinylmethylamino)-8-quinazolino[2,3-a]phthalazinone

> <PUBCHEM_IUPAC_INCHI>
InChI=1S/C21H15N5O/c27-21-17-10-3-4-11-18(17)24-20-16-9-2-1-8-15(16)19(25-26(20)21)23-13-14-7-5-6-12-22-14/h1-12H,13H2,(H,23,25)

> <PUBCHEM_IUPAC_INCHIKEY>
RMLJAQSENLLFPC-UHFFFAOYSA-N

> <PUBCHEM_IUPAC_NAME>
5-(pyridin-2-ylmethylamino)quinazolino[2,3-a]phthalazin-8-one

> <PUBCHEM_IUPAC_OPENEYE_NAME>
5-(2-pyridylmethylamino)quinazolino[2,3-a]phthalazin-8-one

> <PUBCHEM_IUPAC_SYSTEMATIC_NAME>
5-(pyridin-2-ylmethylamino)quinazolino[2,3-a]phthalazin-8-one

> <PUBCHEM_IUPAC_TRADITIONAL_NAME>
5-(2-pyridylmethylamino)quinazolino[2,3-a]phthalazin-8-one

> <PUBCHEM_MOLECULAR_FORMULA>
C21H15N5O

> <PUBCHEM_MOLECULAR_WEIGHT>
353.3767

> <PUBCHEM_MONOISOTOPIC_WEIGHT>
353.12766

> <PUBCHEM_OPENEYE_CAN_SMILES>
C1=CC=C2C(=C1)C(=NN3C2=NC4=CC=CC=C4C3=O)NCC5=CC=CC=N5

> <PUBCHEM_OPENEYE_ISO_SMILES>
C1=CC=C2C(=C1)C(=NN3C2=NC4=CC=CC=C4C3=O)NCC5=CC=CC=N5

> <PUBCHEM_TOTAL_CHARGE>
0

> <PUBCHEM_XLOGP3_AA>
2.3

$$$$
Written by BCL::WriteToMDL,3128167
MBcorina  10171218483D 1   1.00000     0.00000 
CORINA 3.49 0026  01.06.2011
 46 48  0  0  0  0  0  0  0  0999 V2000
    1.3330   -5.1213   -1.4500 Cl  0  0  0  1  0  1  0  0  0  0  0  0
   -4.4739   -2.6084    0.9695 S   0  0  0  1  0  2  0  0  0  0  0  0
    0.9964   -0.9881   -3.6895 S   0  0  0  1  0  2  0  0  0  0  0  0
   -0.3140   -1.2524    2.7986 F   0  0  0  1  0  1  0  0  0  0  0  0
    1.3675   -1.6918    1.3158 F   0  0  0  1  0  1  0  0  0  0  0  0
   -0.3906   -3.1376    1.5104 F   0  0  0  1  0  1  0  0  0  0  0  0
   -0.3785    0.3554    0.4890 O   0  0  0  1  0  2  0  0  0  0  0  0
   -2.3954   -0.5755   -1.7565 O   0  0  0  1  0  1  0  0  0  0  0  0
   -2.2115   -1.1362    0.6836 N   0  0  0  1  0  3  0  0  0  0  0  0
   -3.5026   -5.4356   -0.9128 N   0  0  0  1  0  1  0  0  0  0  0  0
   -0.4497   -1.6184   -0.9181 C   0  0  0  1  0  4  0  0  0  0  0  0
   -0.7636   -1.0204    0.4600 C   0  0  0  1  0  4  0  0  0  0  0  0
   -0.8337   -3.0997   -0.9092 C   0  0  0  1  0  4  0  0  0  0  0  0
   -2.2292   -3.2706   -0.3779 C   0  0  0  1  0  3  0  0  0  0  0  0
   -0.7642   -3.6421   -2.3135 C   0  0  0  1  0  3  0  0  0  0  0  0
   -1.2447   -0.8965   -1.9754 C   0  0  0  1  0  3  0  0  0  0  0  0
   -0.0090   -1.7920    1.5444 C   0  0  0  1  0  4  0  0  0  0  0  0
   -2.8405   -2.3196    0.3750 C   0  0  0  1  0  3  0  0  0  0  0  0
   -0.6517   -0.5932   -3.2208 C   0  0  0  1  0  3  0  0  0  0  0  0
    0.2013   -4.5753   -2.6479 C   0  0  0  1  0  3  0  0  0  0  0  0
   -1.6681   -3.2118   -3.2661 C   0  0  0  1  0  3  0  0  0  0  0  0
   -2.9393   -4.4779   -0.6762 C   0  0  0  1  0  2  0  0  0  0  0  0
    0.2645   -5.0726   -3.9371 C   0  0  0  1  0  3  0  0  0  0  0  0
   -1.6046   -3.7096   -4.5544 C   0  0  0  1  0  3  0  0  0  0  0  0
   -1.2685    0.0575   -4.2591 C   0  0  0  1  0  3  0  0  0  0  0  0
   -4.7575   -1.0651    1.8716 C   0  0  0  1  0  4  0  0  0  0  0  0
   -0.6366   -4.6372   -4.8906 C   0  0  0  1  0  3  0  0  0  0  0  0
   -0.4576    0.2212   -5.3536 C   0  0  0  1  0  3  0  0  0  0  0  0
    0.7807   -0.2750   -5.2243 C   0  0  0  1  0  3  0  0  0  0  0  0
   -6.1554   -1.0873    2.4932 C   0  0  0  1  0  4  0  0  0  0  0  0
    0.6155   -1.5181   -1.1262 H   0  0  0  1  0  1  0  0  0  0  0  0
   -0.1367   -3.6497   -0.2770 H   0  0  0  1  0  1  0  0  0  0  0  0
   -2.7150   -0.3909    1.0469 H   0  0  0  1  0  1  0  0  0  0  0  0
   -0.5717    0.8004    1.3256 H   0  0  0  1  0  1  0  0  0  0  0  0
   -2.4244   -2.4867   -3.0041 H   0  0  0  1  0  1  0  0  0  0  0  0
    1.0180   -5.8008   -4.1988 H   0  0  0  1  0  1  0  0  0  0  0  0
   -2.3117   -3.3735   -5.2984 H   0  0  0  1  0  1  0  0  0  0  0  0
   -2.2900    0.4059   -4.2189 H   0  0  0  1  0  1  0  0  0  0  0  0
   -4.0112   -0.9622    2.6593 H   0  0  0  1  0  1  0  0  0  0  0  0
   -4.6789   -0.2228    1.1843 H   0  0  0  1  0  1  0  0  0  0  0  0
   -0.5873   -5.0254   -5.8972 H   0  0  0  1  0  1  0  0  0  0  0  0
   -0.7927    0.7144   -6.2540 H   0  0  0  1  0  1  0  0  0  0  0  0
    1.5410   -0.2294   -5.9900 H   0  0  0  1  0  1  0  0  0  0  0  0
   -6.2341   -1.9296    3.1805 H   0  0  0  1  0  1  0  0  0  0  0  0
   -6.3263   -0.1579    3.0364 H   0  0  0  1  0  1  0  0  0  0  0  0
   -6.9017   -1.1901    1.7055 H   0  0  0  1  0  1  0  0  0  0  0  0
  1 20  1  0  0  0  0
  2 18  1  0  0  0  0
  2 26  1  0  0  0  0
  3 19  1  0  0  0  0
  3 29  1  0  0  0  0
  4 17  1  0  0  0  0
  5 17  1  0  0  0  0
  6 17  1  0  0  0  0
  7 12  1  0  0  0  0
  7 34  1  0  0  0  0
  8 16  2  0  0  0  0
  9 12  1  0  0  0  0
  9 18  1  0  0  0  0
  9 33  1  0  0  0  0
 10 22  3  0  0  0  0
 11 12  1  0  0  0  0
 11 13  1  0  0  0  0
 11 16  1  0  0  0  0
 11 31  1  0  0  0  0
 12 17  1  0  0  0  0
 13 14  1  0  0  0  0
 13 15  1  0  0  0  0
 13 32  1  0  0  0  0
 14 18  2  0  0  0  0
 14 22  1  0  0  0  0
 15 20  1  0  0  0  0
 15 21  2  0  0  0  0
 16 19  1  0  0  0  0
 19 25  2  0  0  0  0
 20 23  2  0  0  0  0
 21 24  1  0  0  0  0
 21 35  1  0  0  0  0
 23 27  1  0  0  0  0
 23 36  1  0  0  0  0
 24 27  2  0  0  0  0
 24 37  1  0  0  0  0
 25 28  1  0  0  0  0
 25 38  1  0  0  0  0
 26 30  1  0  0  0  0
 26 39  1  0  0  0  0
 26 40  1  0  0  0  0
 27 41  1  0  0  0  0
 28 29  2  0  0  0  0
 28 42  1  0  0  0  0
 29 43  1  0  0  0  0
 30 44  1  0  0  0  0
 30 45  1  0  0  0  0
 30 46  1  0  0  0  0
M  END
> <Activity>
0.17373

> <Mapped(file=504701.csv.activities,property=Cached(PUBCHEM_COMPOUND_CID))>
0.17373

> <PUBCHEM_ATOM_DEF_STEREO_COUNT>
0

> <PUBCHEM_ATOM_UDEF_STEREO_COUNT>
3

> <PUBCHEM_BONDANNOTATIONS>
11  16  3
13  15  3
15  20  8
15  21  8
19  25  8
20  23  8
21  24  8
23  27  8
24  27  8
25  28  8
28  29  8
3  19  8
3  29  8
12  7  3

> <PUBCHEM_BOND_DEF_STEREO_COUNT>
0

> <PUBCHEM_BOND_UDEF_STEREO_COUNT>
0

> <PUBCHEM_CACTVS_COMPLEXITY>
754

> <PUBCHEM_CACTVS_HBOND_ACCEPTOR>
9

> <PUBCHEM_CACTVS_HBOND_DONOR>
2

> <PUBCHEM_CACTVS_ROTATABLE_BOND>
5

> <PUBCHEM_CACTVS_SUBSKEYS>
AAADceB7MYBkAAAAAAAAAAAAAAAAASAAAAAwQAAAAAAAAAABwAAAHwYQCAAADQ6F2DCyAYLAAgicBqBSQAAjAIBkDRBIiBkAAskIoD6hlxCEYQAksAAoiY+YyOCOgAAAAAABAAAAAAAAAAIAAAAAAAAAAA==

> <PUBCHEM_CACTVS_TAUTO_COUNT>
2

> <PUBCHEM_CACTVS_TPSA>
127

> <PUBCHEM_COMPONENT_COUNT>
1

> <PUBCHEM_COMPOUND_CANONICALIZED>
1

> <PUBCHEM_COMPOUND_CID>
3128167

> <PUBCHEM_COORDINATE_TYPE>
1
5
255

> <PUBCHEM_EXACT_MASS>
472.029382

> <PUBCHEM_HEAVY_ATOM_COUNT>
30

> <PUBCHEM_ISOTOPIC_ATOM_COUNT>
0

> <PUBCHEM_IUPAC_CAS_NAME>
4-(2-chlorophenyl)-6-(ethylthio)-2-hydroxy-3-[oxo(thiophen-2-yl)methyl]-2-(trifluoromethyl)-3,4-dihydro-1H-pyridine-5-carbonitrile

> <PUBCHEM_IUPAC_INCHI>
InChI=1S/C20H16ClF3N2O2S2/c1-2-29-18-12(10-25)15(11-6-3-4-7-13(11)21)16(17(27)14-8-5-9-30-14)19(28,26-18)20(22,23)24/h3-9,15-16,26,28H,2H2,1H3

> <PUBCHEM_IUPAC_INCHIKEY>
HFKBYHDNFZKCMU-UHFFFAOYSA-N

> <PUBCHEM_IUPAC_NAME>
4-(2-chlorophenyl)-6-ethylsulfanyl-2-hydroxy-3-(thiophene-2-carbonyl)-2-(trifluoromethyl)-3,4-dihydro-1H-pyridine-5-carbonitrile

> <PUBCHEM_IUPAC_OPENEYE_NAME>
4-(2-chlorophenyl)-6-ethylsulfanyl-2-hydroxy-3-(thiophene-2-carbonyl)-2-(trifluoromethyl)-3,4-dihydro-1H-pyridine-5-carbonitrile

> <PUBCHEM_IUPAC_SYSTEMATIC_NAME>
4-(2-chlorophenyl)-6-ethylsulfanyl-2-oxidanyl-3-thiophen-2-ylcarbonyl-2-(trifluoromethyl)-3,4-dihydro-1H-pyridine-5-carbonitrile

> <PUBCHEM_IUPAC_TRADITIONAL_NAME>
4-(2-chlorophenyl)-6-(ethylthio)-2-hydroxy-3-(2-thenoyl)-2-(trifluoromethyl)-3,4-dihydro-1H-pyridine-5-carbonitrile

> <PUBCHEM_MOLECULAR_FORMULA>
C20H16ClF3N2O2S2

> <PUBCHEM_MOLECULAR_WEIGHT>
472.93145

> <PUBCHEM_MONOISOTOPIC_WEIGHT>
472.029382

> <PUBCHEM_OPENEYE_CAN_SMILES>
CCSC1=C(C(C(C(N1)(C(F)(F)F)O)C(=O)C2=CC=CS2)C3=CC=CC=C3Cl)C#N

> <PUBCHEM_OPENEYE_ISO_SMILES>
CCSC1=C(C(C(C(N1)(C(F)(F)F)O)C(=O)C2=CC=CS2)C3=CC=CC=C3Cl)C#N

> <PUBCHEM_TOTAL_CHARGE>
0

> <PUBCHEM_XLOGP3_AA>
5.7

$$$$
Written by BCL::WriteToMDL,46499334
MBcorina  10171218483D 1   1.00000     0.00000 
CORINA 3.49 0026  01.06.2011
 49 51  0  0  0  0  0  0  0  0999 V2000
   -0.0172    1.4168    0.0098 S   0  0  0  1  0  4  0  0  0  0  0  0
    1.4478    1.8535   -6.0693 O   0  0  0  1  0  1  0  0  0  0  0  0
    5.0657    0.8821   -4.7743 O   0  0  0  1  0  2  0  0  0  0  0  0
    2.9189   -0.5933   -6.2711 O   0  0  0  1  0  1  0  0  0  0  0  0
    0.0021   -0.0041    0.0020 O   0  0  0  1  0  1  0  0  0  0  0  0
    1.1617    2.2101    0.0028 O   0  0  0  1  0  1  0  0  0  0  0  0
    3.4925    2.4328   -4.7141 O   0  0  0  1  0  1  0  0  0  0  0  0
   -0.9002    1.8797   -1.3124 N   0  0  0  1  0  2  0  0  0  0  0  0
    1.4462    0.9719   -3.9086 C   0  0  0  1  0  3  0  0  0  0  0  0
    2.7723    0.2786   -4.0877 C   0  0  0  1  0  4  0  0  0  0  0  0
   -1.2304    2.0535   -3.7015 C   0  0  0  1  0  3  0  0  0  0  0  0
   -0.6040    2.0478   -4.9614 C   0  0  0  1  0  3  0  0  0  0  0  0
   -0.4493    1.6440   -2.5122 C   0  0  0  1  0  3  0  0  0  0  0  0
    0.8122    1.6393   -5.0544 C   0  0  0  1  0  3  0  0  0  0  0  0
    0.8505    0.9700   -2.7037 C   0  0  0  1  0  3  0  0  0  0  0  0
   -2.5604    2.4344   -3.5932 C   0  0  0  1  0  3  0  0  0  0  0  0
   -1.3211    2.4282   -6.0912 C   0  0  0  1  0  3  0  0  0  0  0  0
    2.6338   -0.8121   -5.1183 C   0  0  0  1  0  3  0  0  0  0  0  0
    3.8029    1.2770   -4.5483 C   0  0  0  1  0  3  0  0  0  0  0  0
   -0.9297    1.8941    1.4396 C   0  0  0  1  0  3  0  0  0  0  0  0
   -3.2592    2.8150   -4.7261 C   0  0  0  1  0  3  0  0  0  0  0  0
   -2.6447    2.8090   -5.9656 C   0  0  0  1  0  3  0  0  0  0  0  0
    2.1394   -2.1760   -4.7102 C   0  0  0  1  0  4  0  0  0  0  0  0
   -1.8430    1.0209    2.0000 C   0  0  0  1  0  3  0  0  0  0  0  0
   -0.7281    3.1397    2.0041 C   0  0  0  1  0  3  0  0  0  0  0  0
   -2.3611    2.6430    3.6832 C   0  0  0  1  0  3  0  0  0  0  0  0
   -2.5589    1.3954    3.1217 C   0  0  0  1  0  3  0  0  0  0  0  0
   -1.4439    3.5143    3.1258 C   0  0  0  1  0  3  0  0  0  0  0  0
   -3.1419    3.0515    4.9057 C   0  0  0  1  0  4  0  0  0  0  0  0
    6.0048    1.8976   -5.2161 C   0  0  0  1  0  4  0  0  0  0  0  0
    3.0861   -0.1560   -3.1386 H   0  0  0  1  0  1  0  0  0  0  0  0
    1.3251    0.4723   -1.8709 H   0  0  0  1  0  1  0  0  0  0  0  0
   -3.0460    2.4409   -2.6285 H   0  0  0  1  0  1  0  0  0  0  0  0
   -0.8465    2.4264   -7.0613 H   0  0  0  1  0  1  0  0  0  0  0  0
   -4.2944    3.1115   -4.6427 H   0  0  0  1  0  1  0  0  0  0  0  0
   -3.2028    3.1045   -6.8417 H   0  0  0  1  0  1  0  0  0  0  0  0
    2.9872   -2.8006   -4.4287 H   0  0  0  1  0  1  0  0  0  0  0  0
    1.4626   -2.0782   -3.8614 H   0  0  0  1  0  1  0  0  0  0  0  0
    1.6108   -2.6357   -5.5452 H   0  0  0  1  0  1  0  0  0  0  0  0
   -1.9975    0.0462    1.5614 H   0  0  0  1  0  1  0  0  0  0  0  0
   -0.0110    3.8202    1.5691 H   0  0  0  1  0  1  0  0  0  0  0  0
   -3.2730    0.7134    3.5591 H   0  0  0  1  0  1  0  0  0  0  0  0
   -1.2861    4.4873    3.5671 H   0  0  0  1  0  1  0  0  0  0  0  0
   -2.5920    2.7625    5.8013 H   0  0  0  1  0  1  0  0  0  0  0  0
   -3.2860    4.1319    4.9006 H   0  0  0  1  0  1  0  0  0  0  0  0
   -4.1125    2.5555    4.8994 H   0  0  0  1  0  1  0  0  0  0  0  0
    5.6596    2.3273   -6.1565 H   0  0  0  1  0  1  0  0  0  0  0  0
    6.0736    2.6816   -4.4620 H   0  0  0  1  0  1  0  0  0  0  0  0
    6.9863    1.4462   -5.3615 H   0  0  0  1  0  1  0  0  0  0  0  0
  1  5  2  0  0  0  0
  1  6  2  0  0  0  0
  1  8  1  0  0  0  0
  1 20  1  0  0  0  0
  2 14  2  0  0  0  0
  3 19  1  0  0  0  0
  3 30  1  0  0  0  0
  4 18  2  0  0  0  0
  7 19  2  0  0  0  0
  8 13  2  0  0  0  0
  9 10  1  0  0  0  0
  9 14  1  0  0  0  0
  9 15  2  0  0  0  0
 10 18  1  0  0  0  0
 10 19  1  0  0  0  0
 10 31  1  0  0  0  0
 11 12  1  0  0  0  0
 11 13  1  0  0  0  0
 11 16  2  0  0  0  0
 12 14  1  0  0  0  0
 12 17  2  0  0  0  0
 13 15  1  0  0  0  0
 15 32  1  0  0  0  0
 16 21  1  0  0  0  0
 16 33  1  0  0  0  0
 17 22  1  0  0  0  0
 17 34  1  0  0  0  0
 18 23  1  0  0  0  0
 20 24  2  0  0  0  0
 20 25  1  0  0  0  0
 21 22  2  0  0  0  0
 21 35  1  0  0  0  0
 22 36  1  0  0  0  0
 23 37  1  0  0  0  0
 23 38  1  0  0  0  0
 23 39  1  0  0  0  0
 24 27  1  0  0  0  0
 24 40  1  0  0  0  0
 25 28  2  0  0  0  0
 25 41  1  0  0  0  0
 26 27  2  0  0  0  0
 26 28  1  0  0  0  0
 26 29  1  0  0  0  0
 27 42  1  0  0  0  0
 28 43  1  0  0  0  0
 29 44  1  0  0  0  0
 29 45  1  0  0  0  0
 29 46  1  0  0  0  0
 30 47  1  0  0  0  0
 30 48  1  0  0  0  0
 30 49  1  0  0  0  0
M  END
> <Activity>
0.41394

> <Mapped(file=504701.csv.activities,property=Cached(PUBCHEM_COMPOUND_CID))>
0.41394

> <PUBCHEM_ATOM_DEF_STEREO_COUNT>
0

> <PUBCHEM_ATOM_UDEF_STEREO_COUNT>
1

> <PUBCHEM_BONDANNOTATIONS>
10  19  3
11  12  8
11  16  8
12  17  8
16  21  8
17  22  8
20  24  8
20  25  8
21  22  8
24  27  8
25  28  8
26  27  8
26  28  8

> <PUBCHEM_BOND_DEF_STEREO_COUNT>
1

> <PUBCHEM_BOND_UDEF_STEREO_COUNT>
0

> <PUBCHEM_CACTVS_COMPLEXITY>
874

> <PUBCHEM_CACTVS_HBOND_ACCEPTOR>
7

> <PUBCHEM_CACTVS_HBOND_DONOR>
0

> <PUBCHEM_CACTVS_ROTATABLE_BOND>
6

> <PUBCHEM_CACTVS_SUBSKEYS>
AAADceB6OABAAAAAAAAAAAAAAAAAAAAAAAAwYIAAAAAAAACBQAAAHgQAQAAADQyB2AIyCYAABAKoA6DyCHBCABAkAAAIiBkwANgIILaIFRCAIQAk4AAIiYeLyPCOkAAAAAAQAAAgAAAAACAAAAAAAAAAAA==

> <PUBCHEM_CACTVS_TAUTO_COUNT>
9

> <PUBCHEM_CACTVS_TPSA>
115

> <PUBCHEM_COMPONENT_COUNT>
1

> <PUBCHEM_COMPOUND_CANONICALIZED>
1

> <PUBCHEM_COMPOUND_CID>
46499334

> <PUBCHEM_COORDINATE_TYPE>
1
5
255

> <PUBCHEM_EXACT_MASS>
425.093308

> <PUBCHEM_HEAVY_ATOM_COUNT>
30

> <PUBCHEM_ISOTOPIC_ATOM_COUNT>
0

> <PUBCHEM_IUPAC_CAS_NAME>
2-[(4E)-4-(4-methylphenyl)sulfonylimino-1-oxo-2-naphthalenyl]-3-oxobutanoic acid methyl ester

> <PUBCHEM_IUPAC_INCHI>
InChI=1S/C22H19NO6S/c1-13-8-10-15(11-9-13)30(27,28)23-19-12-18(20(14(2)24)22(26)29-3)21(25)17-7-5-4-6-16(17)19/h4-12,20H,1-3H3/b23-19+

> <PUBCHEM_IUPAC_INCHIKEY>
FZLHLVFJKMISJL-FCDQGJHFSA-N

> <PUBCHEM_IUPAC_NAME>
methyl 2-[(4E)-4-(4-methylphenyl)sulfonylimino-1-oxonaphthalen-2-yl]-3-oxobutanoate

> <PUBCHEM_IUPAC_OPENEYE_NAME>
methyl 3-oxo-2-[(4E)-1-oxo-4-(p-tolylsulfonylimino)-2-naphthyl]butanoate

> <PUBCHEM_IUPAC_SYSTEMATIC_NAME>
methyl 2-[(4E)-4-(4-methylphenyl)sulfonylimino-1-oxidanylidene-naphthalen-2-yl]-3-oxidanylidene-butanoate

> <PUBCHEM_IUPAC_TRADITIONAL_NAME>
3-keto-2-[(4E)-1-keto-4-tosylimino-2-naphthyl]butyric acid methyl ester

> <PUBCHEM_MOLECULAR_FORMULA>
C22H19NO6S

> <PUBCHEM_MOLECULAR_WEIGHT>
425.45436

> <PUBCHEM_MONOISOTOPIC_WEIGHT>
425.093308

> <PUBCHEM_OPENEYE_CAN_SMILES>
CC1=CC=C(C=C1)S(=O)(=O)N=C2C=C(C(=O)C3=CC=CC=C32)C(C(=O)C)C(=O)OC

> <PUBCHEM_OPENEYE_ISO_SMILES>
CC1=CC=C(C=C1)S(=O)(=O)/N=C/2\C=C(C(=O)C3=CC=CC=C32)C(C(=O)C)C(=O)OC

> <PUBCHEM_TOTAL_CHARGE>
0

> <PUBCHEM_XLOGP3_AA>
3

$$$$
Written by BCL::WriteToMDL,3228462
MBcorina  10171218483D 1   1.00000     0.00000 
CORINA 3.49 0026  01.06.2011
 57 59  0  0  0  0  0  0  0  0999 V2000
    0.7452    1.6358   -0.5928 S   0  0  0  1  0  4  0  0  0  0  0  0
    0.8108    0.2171   -0.5460 O   0  0  0  1  0  1  0  0  0  0  0  0
    1.8614    2.4554   -0.9115 O   0  0  0  1  0  1  0  0  0  0  0  0
   -0.9352    5.6062   -3.6230 O   0  0  0  1  0  1  0  0  0  0  0  0
   -1.1452    3.3873    4.7006 O   0  0  0  1  0  2  0  0  0  0  0  0
   -0.4396    2.0133   -1.6864 N   0  0  0  1  0  3  0  0  0  0  0  0
   -3.0029    6.0036   -2.9238 N   0  0  0  1  0  3  0  0  0  0  0  0
   -1.8111    3.9754   -2.1590 C   0  0  0  1  0  4  0  0  0  0  0  0
   -2.9102    3.0189   -2.6272 C   0  0  0  1  0  4  0  0  0  0  0  0
   -0.4439    3.3161   -2.3657 C   0  0  0  1  0  4  0  0  0  0  0  0
   -2.8607    1.7294   -1.7972 C   0  0  0  1  0  4  0  0  0  0  0  0
   -1.5031    1.0494   -2.0005 C   0  0  0  1  0  4  0  0  0  0  0  0
   -1.8838    5.2532   -2.9547 C   0  0  0  1  0  3  0  0  0  0  0  0
    0.1791    2.1601    0.9913 C   0  0  0  1  0  3  0  0  0  0  0  0
   -0.5462    1.2926    1.7869 C   0  0  0  1  0  3  0  0  0  0  0  0
    0.4658    3.4365    1.4389 C   0  0  0  1  0  3  0  0  0  0  0  0
   -3.0322    7.2431   -3.5724 C   0  0  0  1  0  3  0  0  0  0  0  0
   -0.9908    1.7011    3.0294 C   0  0  0  1  0  3  0  0  0  0  0  0
    0.0235    3.8499    2.6806 C   0  0  0  1  0  3  0  0  0  0  0  0
   -4.2106    7.6991   -4.1487 C   0  0  0  1  0  3  0  0  0  0  0  0
   -1.8846    8.0223   -3.6364 C   0  0  0  1  0  3  0  0  0  0  0  0
   -0.7089    2.9831    3.4787 C   0  0  0  1  0  3  0  0  0  0  0  0
   -4.2363    8.9229   -4.7883 C   0  0  0  1  0  3  0  0  0  0  0  0
   -1.9168    9.2453   -4.2774 C   0  0  0  1  0  3  0  0  0  0  0  0
   -3.0903    9.6940   -4.8552 C   0  0  0  1  0  3  0  0  0  0  0  0
   -5.5144    9.4183   -5.4144 C   0  0  0  1  0  4  0  0  0  0  0  0
   -0.6720   10.0918   -4.3468 C   0  0  0  1  0  4  0  0  0  0  0  0
   -0.8181    4.7205    5.0979 C   0  0  0  1  0  4  0  0  0  0  0  0
   -1.3892    4.9922    6.4910 C   0  0  0  1  0  4  0  0  0  0  0  0
   -1.9483    4.1971   -1.1007 H   0  0  0  1  0  1  0  0  0  0  0  0
   -3.8829    3.4953   -2.5041 H   0  0  0  1  0  1  0  0  0  0  0  0
   -2.7559    2.7751   -3.6783 H   0  0  0  1  0  1  0  0  0  0  0  0
    0.3354    3.9507   -1.9436 H   0  0  0  1  0  1  0  0  0  0  0  0
   -0.2644    3.1732   -3.4312 H   0  0  0  1  0  1  0  0  0  0  0  0
   -2.9886    1.9709   -0.7420 H   0  0  0  1  0  1  0  0  0  0  0  0
   -3.6592    1.0600   -2.1171 H   0  0  0  1  0  1  0  0  0  0  0  0
   -1.4083    0.7254   -3.0369 H   0  0  0  1  0  1  0  0  0  0  0  0
   -1.4230    0.1880   -1.3374 H   0  0  0  1  0  1  0  0  0  0  0  0
   -3.7879    5.6845   -2.4518 H   0  0  0  1  0  1  0  0  0  0  0  0
   -0.7657    0.2948    1.4366 H   0  0  0  1  0  1  0  0  0  0  0  0
    1.0363    4.1108    0.8174 H   0  0  0  1  0  1  0  0  0  0  0  0
   -1.5576    1.0232    3.6504 H   0  0  0  1  0  1  0  0  0  0  0  0
    0.2480    4.8468    3.0300 H   0  0  0  1  0  1  0  0  0  0  0  0
   -5.1058    7.0972   -4.0971 H   0  0  0  1  0  1  0  0  0  0  0  0
   -0.9678    7.6726   -3.1850 H   0  0  0  1  0  1  0  0  0  0  0  0
   -3.1130   10.6506   -5.3559 H   0  0  0  1  0  1  0  0  0  0  0  0
   -6.0787    9.9945   -4.6811 H   0  0  0  1  0  1  0  0  0  0  0  0
   -5.2784   10.0510   -6.2700 H   0  0  0  1  0  1  0  0  0  0  0  0
   -6.1106    8.5678   -5.7449 H   0  0  0  1  0  1  0  0  0  0  0  0
   -0.1110    9.8398   -5.2468 H   0  0  0  1  0  1  0  0  0  0  0  0
   -0.9501   11.1453   -4.3752 H   0  0  0  1  0  1  0  0  0  0  0  0
   -0.0545    9.9025   -3.4688 H   0  0  0  1  0  1  0  0  0  0  0  0
    0.2654    4.8374    5.1203 H   0  0  0  1  0  1  0  0  0  0  0  0
   -1.2451    5.4268    4.3860 H   0  0  0  1  0  1  0  0  0  0  0  0
   -2.4727    4.8752    6.4686 H   0  0  0  1  0  1  0  0  0  0  0  0
   -0.9622    4.2858    7.2029 H   0  0  0  1  0  1  0  0  0  0  0  0
   -1.1397    6.0091    6.7940 H   0  0  0  1  0  1  0  0  0  0  0  0
  1  2  2  0  0  0  0
  1  3  2  0  0  0  0
  1  6  1  0  0  0  0
  1 14  1  0  0  0  0
  4 13  2  0  0  0  0
  5 22  1  0  0  0  0
  5 28  1  0  0  0  0
  6 10  1  0  0  0  0
  6 12  1  0  0  0  0
  7 13  1  0  0  0  0
  7 17  1  0  0  0  0
  7 39  1  0  0  0  0
  8  9  1  0  0  0  0
  8 10  1  0  0  0  0
  8 13  1  0  0  0  0
  8 30  1  0  0  0  0
  9 11  1  0  0  0  0
  9 31  1  0  0  0  0
  9 32  1  0  0  0  0
 10 33  1  0  0  0  0
 10 34  1  0  0  0  0
 11 12  1  0  0  0  0
 11 35  1  0  0  0  0
 11 36  1  0  0  0  0
 12 37  1  0  0  0  0
 12 38  1  0  0  0  0
 14 15  2  0  0  0  0
 14 16  1  0  0  0  0
 15 18  1  0  0  0  0
 15 40  1  0  0  0  0
 16 19  2  0  0  0  0
 16 41  1  0  0  0  0
 17 20  2  0  0  0  0
 17 21  1  0  0  0  0
 18 22  2  0  0  0  0
 18 42  1  0  0  0  0
 19 22  1  0  0  0  0
 19 43  1  0  0  0  0
 20 23  1  0  0  0  0
 20 44  1  0  0  0  0
 21 24  2  0  0  0  0
 21 45  1  0  0  0  0
 23 25  2  0  0  0  0
 23 26  1  0  0  0  0
 24 25  1  0  0  0  0
 24 27  1  0  0  0  0
 25 46  1  0  0  0  0
 26 47  1  0  0  0  0
 26 48  1  0  0  0  0
 26 49  1  0  0  0  0
 27 50  1  0  0  0  0
 27 51  1  0  0  0  0
 27 52  1  0  0  0  0
 28 29  1  0  0  0  0
 28 53  1  0  0  0  0
 28 54  1  0  0  0  0
 29 55  1  0  0  0  0
 29 56  1  0  0  0  0
 29 57  1  0  0  0  0
M  END
> <Activity>
0.43837

> <Mapped(file=504701.csv.activities,property=Cached(PUBCHEM_COMPOUND_CID))>
0.43837

> <PUBCHEM_ATOM_DEF_STEREO_COUNT>
0

> <PUBCHEM_ATOM_UDEF_STEREO_COUNT>
1

> <PUBCHEM_BONDANNOTATIONS>
14  15  8
14  16  8
15  18  8
16  19  8
17  20  8
17  21  8
18  22  8
19  22  8
20  23  8
21  24  8
23  25  8
24  25  8
8  13  3

> <PUBCHEM_BOND_DEF_STEREO_COUNT>
0

> <PUBCHEM_BOND_UDEF_STEREO_COUNT>
0

> <PUBCHEM_CACTVS_COMPLEXITY>
630

> <PUBCHEM_CACTVS_HBOND_ACCEPTOR>
5

> <PUBCHEM_CACTVS_HBOND_DONOR>
1

> <PUBCHEM_CACTVS_ROTATABLE_BOND>
6

> <PUBCHEM_CACTVS_SUBSKEYS>
AAADceB7OABAAAAAAAAAAAAAAAAAAAAAAAA8YIAAAAAAAAABQAAAHgQQQAAADQzh2AYyx4LABAKIAiVSUHDCCBAhIgAIiBkObIgMJjrE8ZuGOCjk1BHI6AeYwUAOAIACQAAAAAABAASAAAAAAAAAAAAAAA==

> <PUBCHEM_CACTVS_TAUTO_COUNT>
3

> <PUBCHEM_CACTVS_TPSA>
84.1

> <PUBCHEM_COMPONENT_COUNT>
1

> <PUBCHEM_COMPOUND_CANONICALIZED>
1

> <PUBCHEM_COMPOUND_CID>
3228462

> <PUBCHEM_COORDINATE_TYPE>
1
5
255

> <PUBCHEM_EXACT_MASS>
416.176978

> <PUBCHEM_HEAVY_ATOM_COUNT>
29

> <PUBCHEM_ISOTOPIC_ATOM_COUNT>
0

> <PUBCHEM_IUPAC_CAS_NAME>
N-(3,5-dimethylphenyl)-1-(4-ethoxyphenyl)sulfonyl-3-piperidinecarboxamide

> <PUBCHEM_IUPAC_INCHI>
InChI=1S/C22H28N2O4S/c1-4-28-20-7-9-21(10-8-20)29(26,27)24-11-5-6-18(15-24)22(25)23-19-13-16(2)12-17(3)14-19/h7-10,12-14,18H,4-6,11,15H2,1-3H3,(H,23,25)

> <PUBCHEM_IUPAC_INCHIKEY>
AFLCBYWOVUOJFP-UHFFFAOYSA-N

> <PUBCHEM_IUPAC_NAME>
N-(3,5-dimethylphenyl)-1-(4-ethoxyphenyl)sulfonylpiperidine-3-carboxamide

> <PUBCHEM_IUPAC_OPENEYE_NAME>
N-(3,5-dimethylphenyl)-1-(4-ethoxyphenyl)sulfonyl-piperidine-3-carboxamide

> <PUBCHEM_IUPAC_SYSTEMATIC_NAME>
N-(3,5-dimethylphenyl)-1-(4-ethoxyphenyl)sulfonyl-piperidine-3-carboxamide

> <PUBCHEM_IUPAC_TRADITIONAL_NAME>
N-(3,5-dimethylphenyl)-1-p-phenetylsulfonyl-nipecotamide

> <PUBCHEM_MOLECULAR_FORMULA>
C22H28N2O4S

> <PUBCHEM_MOLECULAR_WEIGHT>
416.53372

> <PUBCHEM_MONOISOTOPIC_WEIGHT>
416.176978

> <PUBCHEM_OPENEYE_CAN_SMILES>
CCOC1=CC=C(C=C1)S(=O)(=O)N2CCCC(C2)C(=O)NC3=CC(=CC(=C3)C)C

> <PUBCHEM_OPENEYE_ISO_SMILES>
CCOC1=CC=C(C=C1)S(=O)(=O)N2CCCC(C2)C(=O)NC3=CC(=CC(=C3)C)C

> <PUBCHEM_TOTAL_CHARGE>
0

> <PUBCHEM_XLOGP3_AA>
3.5

$$$$
Written by BCL::WriteToMDL,16195424
MBcorina  10171218483D 1   1.00000     0.00000 
CORINA 3.49 0026  01.06.2011
 52 55  0  0  0  0  0  0  0  0999 V2000
   -4.8912    1.2018    0.0796 O   0  0  0  1  0  1  0  0  0  0  0  0
   -8.0040    4.8318    0.1441 O   0  0  0  1  0  1  0  0  0  0  0  0
   -0.0169    1.3971    0.0097 N   0  0  0  1  0  3  0  0  0  0  0  0
    2.0442    0.7154   -0.0136 N   0  0  0  1  0  2  0  0  0  0  0  0
   -0.7905    3.6153    0.0290 N   0  0  0  1  0  2  0  0  0  0  0  0
    0.0021   -0.0041    0.0020 N   0  0  0  1  0  2  0  0  0  0  0  0
   -2.3226    1.8909    0.0459 N   0  0  0  1  0  3  0  0  0  0  0  0
   -3.3721    2.8187    0.0660 N   0  0  0  1  0  3  0  0  0  0  0  0
   -9.5231    3.2149    0.1576 N   0  0  0  1  0  3  0  0  0  0  0  0
    1.2935    1.7949   -0.0007 C   0  0  0  1  0  3  0  0  0  0  0  0
    1.5688    3.2365    0.0045 C   0  0  0  1  0  3  0  0  0  0  0  0
    0.4664    4.1214    0.0198 C   0  0  0  1  0  3  0  0  0  0  0  0
   -1.0192    2.3278    0.0292 C   0  0  0  1  0  3  0  0  0  0  0  0
    1.2669   -0.3729   -0.0120 C   0  0  0  1  0  3  0  0  0  0  0  0
    2.8670    3.7404   -0.0057 C   0  0  0  1  0  3  0  0  0  0  0  0
    0.6969    5.4994    0.0197 C   0  0  0  1  0  3  0  0  0  0  0  0
    1.7526   -1.7752   -0.0250 C   0  0  0  1  0  3  0  0  0  0  0  0
   -5.7789    3.3883    0.1041 C   0  0  0  1  0  4  0  0  0  0  0  0
    3.0681    5.1037   -0.0007 C   0  0  0  1  0  3  0  0  0  0  0  0
    1.9881    5.9762    0.0101 C   0  0  0  1  0  3  0  0  0  0  0  0
   -7.1163    2.6452    0.1196 C   0  0  0  1  0  4  0  0  0  0  0  0
   -4.6499    2.3904    0.0824 C   0  0  0  1  0  3  0  0  0  0  0  0
    0.8427   -2.8303   -0.0219 C   0  0  0  1  0  3  0  0  0  0  0  0
    3.1201   -2.0413   -0.0461 C   0  0  0  1  0  3  0  0  0  0  0  0
   -8.2453    3.6432    0.1413 C   0  0  0  1  0  3  0  0  0  0  0  0
    1.2999   -4.1325   -0.0344 C   0  0  0  1  0  3  0  0  0  0  0  0
    3.5663   -3.3473   -0.0585 C   0  0  0  1  0  3  0  0  0  0  0  0
    2.6586   -4.3911   -0.0496 C   0  0  0  1  0  3  0  0  0  0  0  0
  -10.6206    4.1851    0.1787 C   0  0  0  1  0  4  0  0  0  0  0  0
  -11.9378    3.4531    0.1940 C   0  0  0  1  0  3  0  0  0  0  0  0
  -12.8128    3.6989    1.1374 C   0  0  0  1  0  3  0  0  0  0  0  0
    3.7111    3.0669   -0.0170 H   0  0  0  1  0  1  0  0  0  0  0  0
   -0.1351    6.1881    0.0268 H   0  0  0  1  0  1  0  0  0  0  0  0
   -2.5155    0.9403    0.0436 H   0  0  0  1  0  1  0  0  0  0  0  0
   -5.7238    4.0187   -0.7835 H   0  0  0  1  0  1  0  0  0  0  0  0
   -5.6979    4.0093    0.9963 H   0  0  0  1  0  1  0  0  0  0  0  0
    4.0740    5.4967   -0.0086 H   0  0  0  1  0  1  0  0  0  0  0  0
    2.1633    7.0419    0.0100 H   0  0  0  1  0  1  0  0  0  0  0  0
   -7.1973    2.0243   -0.7726 H   0  0  0  1  0  1  0  0  0  0  0  0
   -7.1714    2.0149    1.0071 H   0  0  0  1  0  1  0  0  0  0  0  0
   -3.1792    3.7693    0.0683 H   0  0  0  1  0  1  0  0  0  0  0  0
   -0.2184   -2.6296   -0.0093 H   0  0  0  1  0  1  0  0  0  0  0  0
    3.8296   -1.2271   -0.0530 H   0  0  0  1  0  1  0  0  0  0  0  0
    0.5954   -4.9512   -0.0320 H   0  0  0  1  0  1  0  0  0  0  0  0
    4.6261   -3.5548   -0.0752 H   0  0  0  1  0  1  0  0  0  0  0  0
   -9.7160    2.2643    0.1554 H   0  0  0  1  0  1  0  0  0  0  0  0
    3.0121   -5.4115   -0.0586 H   0  0  0  1  0  1  0  0  0  0  0  0
  -10.5396    4.8060    1.0709 H   0  0  0  1  0  1  0  0  0  0  0  0
  -10.5654    4.8154   -0.7089 H   0  0  0  1  0  1  0  0  0  0  0  0
  -12.1604    2.7260   -0.5729 H   0  0  0  1  0  1  0  0  0  0  0  0
  -13.7568    3.1744    1.1484 H   0  0  0  1  0  1  0  0  0  0  0  0
  -12.5901    4.4261    1.9043 H   0  0  0  1  0  1  0  0  0  0  0  0
  1 22  2  0  0  0  0
  2 25  2  0  0  0  0
  3  6  1  0  0  0  0
  3 10  1  0  0  0  0
  3 13  1  0  0  0  0
  4 10  2  0  0  0  0
  4 14  1  0  0  0  0
  5 12  1  0  0  0  0
  5 13  2  0  0  0  0
  6 14  2  0  0  0  0
  7  8  1  0  0  0  0
  7 13  1  0  0  0  0
  7 34  1  0  0  0  0
  8 22  1  0  0  0  0
  8 41  1  0  0  0  0
  9 25  1  0  0  0  0
  9 29  1  0  0  0  0
  9 46  1  0  0  0  0
 10 11  1  0  0  0  0
 11 12  1  0  0  0  0
 11 15  2  0  0  0  0
 12 16  2  0  0  0  0
 14 17  1  0  0  0  0
 15 19  1  0  0  0  0
 15 32  1  0  0  0  0
 16 20  1  0  0  0  0
 16 33  1  0  0  0  0
 17 23  2  0  0  0  0
 17 24  1  0  0  0  0
 18 21  1  0  0  0  0
 18 22  1  0  0  0  0
 18 35  1  0  0  0  0
 18 36  1  0  0  0  0
 19 20  2  0  0  0  0
 19 37  1  0  0  0  0
 20 38  1  0  0  0  0
 21 25  1  0  0  0  0
 21 39  1  0  0  0  0
 21 40  1  0  0  0  0
 23 26  1  0  0  0  0
 23 42  1  0  0  0  0
 24 27  2  0  0  0  0
 24 43  1  0  0  0  0
 26 28  2  0  0  0  0
 26 44  1  0  0  0  0
 27 28  1  0  0  0  0
 27 45  1  0  0  0  0
 28 47  1  0  0  0  0
 29 30  1  0  0  0  0
 29 48  1  0  0  0  0
 29 49  1  0  0  0  0
 30 31  2  0  0  0  0
 30 50  1  0  0  0  0
 31 51  1  0  0  0  0
 31 52  1  0  0  0  0
M  END
> <Activity>
1.201

> <Mapped(file=504701.csv.activities,property=Cached(PUBCHEM_COMPOUND_CID))>
1.201

> <PUBCHEM_ATOM_DEF_STEREO_COUNT>
0

> <PUBCHEM_ATOM_UDEF_STEREO_COUNT>
0

> <PUBCHEM_BONDANNOTATIONS>
10  11  8
11  12  8
11  15  8
12  16  8
15  19  8
16  20  8
17  23  8
17  24  8
19  20  8
23  26  8
24  27  8
26  28  8
27  28  8
3  10  8
3  13  8
3  6  8
4  10  8
4  14  8
5  12  8
5  13  8
6  14  8

> <PUBCHEM_BOND_DEF_STEREO_COUNT>
0

> <PUBCHEM_BOND_UDEF_STEREO_COUNT>
0

> <PUBCHEM_CACTVS_COMPLEXITY>
639

> <PUBCHEM_CACTVS_HBOND_ACCEPTOR>
2

> <PUBCHEM_CACTVS_HBOND_DONOR>
3

> <PUBCHEM_CACTVS_ROTATABLE_BOND>
8

> <PUBCHEM_CACTVS_SUBSKEYS>
AAADceB7sAAAAAAAAAAAAAAAAAAAAWAAAAA8YIAAAAAAAFix9AAAHgAYAAAADAjBnwQx8P7qEACqAydydACShCshAqIfuKE4ZJiIKLLA2dGEpAh4ngLIyCcVgAAOAAAAAAACAAAAAAAAAAQAAAAAAAAAAA==

> <PUBCHEM_CACTVS_TAUTO_COUNT>
36

> <PUBCHEM_CACTVS_TPSA>
113

> <PUBCHEM_COMPONENT_COUNT>
1

> <PUBCHEM_COMPOUND_CANONICALIZED>
1

> <PUBCHEM_COMPOUND_CID>
16195424

> <PUBCHEM_COORDINATE_TYPE>
1
5
255

> <PUBCHEM_EXACT_MASS>
415.175673

> <PUBCHEM_HEAVY_ATOM_COUNT>
31

> <PUBCHEM_ISOTOPIC_ATOM_COUNT>
0

> <PUBCHEM_IUPAC_CAS_NAME>
4-oxo-4-[(2-phenyl-[1,2,4]triazolo[1,5-c]quinazolin-5-yl)hydrazo]-N-prop-2-enylbutanamide

> <PUBCHEM_IUPAC_INCHI>
InChI=1S/C22H21N7O2/c1-2-14-23-18(30)12-13-19(31)26-27-22-24-17-11-7-6-10-16(17)21-25-20(28-29(21)22)15-8-4-3-5-9-15/h2-11H,1,12-14H2,(H,23,30)(H,24,27)(H,26,31)

> <PUBCHEM_IUPAC_INCHIKEY>
XMNJCICKJODNJW-UHFFFAOYSA-N

> <PUBCHEM_IUPAC_NAME>
4-oxo-4-[2-(2-phenyl-[1,2,4]triazolo[1,5-c]quinazolin-5-yl)hydrazinyl]-N-prop-2-enylbutanamide

> <PUBCHEM_IUPAC_OPENEYE_NAME>
N-allyl-4-oxo-4-[2-(2-phenyl-[1,2,4]triazolo[1,5-c]quinazolin-5-yl)hydrazino]butanamide

> <PUBCHEM_IUPAC_SYSTEMATIC_NAME>
4-oxidanylidene-4-[2-(2-phenyl-[1,2,4]triazolo[1,5-c]quinazolin-5-yl)hydrazinyl]-N-prop-2-enyl-butanamide

> <PUBCHEM_IUPAC_TRADITIONAL_NAME>
N-allyl-4-keto-4-[N'-(2-phenyl-[1,2,4]triazolo[1,5-c]quinazolin-5-yl)hydrazino]butyramide

> <PUBCHEM_MOLECULAR_FORMULA>
C22H21N7O2

> <PUBCHEM_MOLECULAR_WEIGHT>
415.44784

> <PUBCHEM_MONOISOTOPIC_WEIGHT>
415.175673

> <PUBCHEM_OPENEYE_CAN_SMILES>
C=CCNC(=O)CCC(=O)NNC1=NC2=CC=CC=C2C3=NC(=NN31)C4=CC=CC=C4

> <PUBCHEM_OPENEYE_ISO_SMILES>
C=CCNC(=O)CCC(=O)NNC1=NC2=CC=CC=C2C3=NC(=NN31)C4=CC=CC=C4

> <PUBCHEM_TOTAL_CHARGE>
0

> <PUBCHEM_XLOGP3_AA>
2.7

$$$$
Written by BCL::WriteToMDL,2809938
MBcorina  10171218483D 1   1.00000     0.00000 
CORINA 3.49 0026  01.06.2011
 47 51  0  0  0  0  0  0  0  0999 V2000
    0.1225    1.1332   -0.3015 S   0  0  0  1  0  4  0  0  0  0  0  0
   -4.0161    2.1992   -4.8305 F   0  0  0  1  0  1  0  0  0  0  0  0
    0.0600   -0.2851   -0.3625 O   0  0  0  1  0  1  0  0  0  0  0  0
    1.3405    1.8614   -0.3751 O   0  0  0  1  0  1  0  0  0  0  0  0
   -0.8342    1.6967   -1.5302 N   0  0  0  1  0  3  0  0  0  0  0  0
   -1.8110    4.2044   -3.8889 N   0  0  0  1  0  3  0  0  0  0  0  0
   -0.7180    2.9512   -2.1374 N   0  0  0  1  0  2  0  0  0  0  0  0
   -0.3099    3.9172    0.7415 N   0  0  0  1  0  2  0  0  0  0  0  0
   -1.6232    3.0823   -3.0700 C   0  0  0  1  0  3  0  0  0  0  0  0
   -2.4061    1.8469   -3.1054 C   0  0  0  1  0  3  0  0  0  0  0  0
   -1.8619    1.0053   -2.1174 C   0  0  0  1  0  3  0  0  0  0  0  0
   -2.0391    5.4785   -3.4537 C   0  0  0  1  0  3  0  0  0  0  0  0
   -1.7903    4.2061   -5.2543 C   0  0  0  1  0  3  0  0  0  0  0  0
   -0.6457    1.6003    1.2138 C   0  0  0  1  0  3  0  0  0  0  0  0
   -3.4880    1.4028   -3.8755 C   0  0  0  1  0  3  0  0  0  0  0  0
   -2.4063   -0.2617   -1.9191 C   0  0  0  1  0  3  0  0  0  0  0  0
   -0.7690    2.9592    1.5530 C   0  0  0  1  0  3  0  0  0  0  0  0
   -2.1671    6.2761   -4.5337 C   0  0  0  1  0  3  0  0  0  0  0  0
   -2.0090    5.4679   -5.6774 C   0  0  0  1  0  3  0  0  0  0  0  0
   -4.0099    0.1481   -3.6515 C   0  0  0  1  0  3  0  0  0  0  0  0
   -3.4579   -0.6811   -2.6829 C   0  0  0  1  0  3  0  0  0  0  0  0
   -1.1223    0.6473    2.0601 C   0  0  0  1  0  3  0  0  0  0  0  0
   -2.1325    5.9173   -2.0150 C   0  0  0  1  0  4  0  0  0  0  0  0
   -1.5616    3.0056   -6.1360 C   0  0  0  1  0  4  0  0  0  0  0  0
   -1.3909    3.3100    2.7767 C   0  0  0  1  0  3  0  0  0  0  0  0
   -1.7337    0.9947    3.2633 C   0  0  0  1  0  3  0  0  0  0  0  0
   -1.8707    2.2997    3.6259 C   0  0  0  1  0  3  0  0  0  0  0  0
   -1.5134    4.6711    3.1145 C   0  0  0  1  0  3  0  0  0  0  0  0
   -1.0232    5.5986    2.2400 C   0  0  0  1  0  3  0  0  0  0  0  0
   -0.4219    5.1856    1.0530 C   0  0  0  1  0  3  0  0  0  0  0  0
   -1.9962   -0.9126   -1.1612 H   0  0  0  1  0  1  0  0  0  0  0  0
   -2.0518    5.7990   -6.7045 H   0  0  0  1  0  1  0  0  0  0  0  0
   -2.3542    7.3397   -4.5239 H   0  0  0  1  0  1  0  0  0  0  0  0
   -4.8443   -0.1991   -4.2427 H   0  0  0  1  0  1  0  0  0  0  0  0
   -3.8738   -1.6650   -2.5234 H   0  0  0  1  0  1  0  0  0  0  0  0
   -1.0252   -0.3952    1.7951 H   0  0  0  1  0  1  0  0  0  0  0  0
   -2.5222    2.5912   -6.4419 H   0  0  0  1  0  1  0  0  0  0  0  0
   -0.9975    3.3055   -7.0191 H   0  0  0  1  0  1  0  0  0  0  0  0
   -0.9997    2.2516   -5.5847 H   0  0  0  1  0  1  0  0  0  0  0  0
   -1.1429    6.2004   -1.6565 H   0  0  0  1  0  1  0  0  0  0  0  0
   -2.8048    6.7720   -1.9388 H   0  0  0  1  0  1  0  0  0  0  0  0
   -2.5176    5.0971   -1.4092 H   0  0  0  1  0  1  0  0  0  0  0  0
   -2.1036    0.2184    3.9167 H   0  0  0  1  0  1  0  0  0  0  0  0
   -2.3460    2.5566    4.5611 H   0  0  0  1  0  1  0  0  0  0  0  0
   -1.9823    4.9734    4.0392 H   0  0  0  1  0  1  0  0  0  0  0  0
   -1.1010    6.6513    2.4687 H   0  0  0  1  0  1  0  0  0  0  0  0
   -0.0384    5.9301    0.3711 H   0  0  0  1  0  1  0  0  0  0  0  0
  1  3  2  0  0  0  0
  1  4  2  0  0  0  0
  1  5  1  0  0  0  0
  1 14  1  0  0  0  0
  2 15  1  0  0  0  0
  5  7  1  0  0  0  0
  5 11  1  0  0  0  0
  6  9  1  0  0  0  0
  6 12  1  0  0  0  0
  6 13  1  0  0  0  0
  7  9  2  0  0  0  0
  8 17  1  0  0  0  0
  8 30  2  0  0  0  0
  9 10  1  0  0  0  0
 10 11  2  0  0  0  0
 10 15  1  0  0  0  0
 11 16  1  0  0  0  0
 12 18  2  0  0  0  0
 12 23  1  0  0  0  0
 13 19  2  0  0  0  0
 13 24  1  0  0  0  0
 14 17  1  0  0  0  0
 14 22  2  0  0  0  0
 15 20  2  0  0  0  0
 16 21  2  0  0  0  0
 16 31  1  0  0  0  0
 17 25  2  0  0  0  0
 18 19  1  0  0  0  0
 18 33  1  0  0  0  0
 19 32  1  0  0  0  0
 20 21  1  0  0  0  0
 20 34  1  0  0  0  0
 21 35  1  0  0  0  0
 22 26  1  0  0  0  0
 22 36  1  0  0  0  0
 23 40  1  0  0  0  0
 23 41  1  0  0  0  0
 23 42  1  0  0  0  0
 24 37  1  0  0  0  0
 24 38  1  0  0  0  0
 24 39  1  0  0  0  0
 25 27  1  0  0  0  0
 25 28  1  0  0  0  0
 26 27  2  0  0  0  0
 26 43  1  0  0  0  0
 27 44  1  0  0  0  0
 28 29  2  0  0  0  0
 28 45  1  0  0  0  0
 29 30  1  0  0  0  0
 29 46  1  0  0  0  0
 30 47  1  0  0  0  0
M  END
> <Activity>
1.934

> <Mapped(file=504701.csv.activities,property=Cached(PUBCHEM_COMPOUND_CID))>
1.934

> <PUBCHEM_ATOM_DEF_STEREO_COUNT>
0

> <PUBCHEM_ATOM_UDEF_STEREO_COUNT>
0

> <PUBCHEM_BONDANNOTATIONS>
10  11  8
10  15  8
11  16  8
12  18  8
13  19  8
14  17  8
14  22  8
15  20  8
16  21  8
17  25  8
18  19  8
20  21  8
22  26  8
25  27  8
25  28  8
26  27  8
28  29  8
29  30  8
5  11  8
5  7  8
6  12  8
6  13  8
7  9  8
8  17  8
8  30  8
9  10  8

> <PUBCHEM_BOND_DEF_STEREO_COUNT>
0

> <PUBCHEM_BOND_UDEF_STEREO_COUNT>
0

> <PUBCHEM_CACTVS_COMPLEXITY>
721

> <PUBCHEM_CACTVS_HBOND_ACCEPTOR>
5

> <PUBCHEM_CACTVS_HBOND_DONOR>
0

> <PUBCHEM_CACTVS_ROTATABLE_BOND>
3

> <PUBCHEM_CACTVS_SUBSKEYS>
AAADceB7sQBAAAAAAAAAAAAAAAAAAWLAAAA8YIAAAAAAAFix/gAAHQQIQAAADAjBXgw/8fMMEAKiAzZnZHDShDIxAiAd2Dw4ZJiIIOLA2dGEpAhgiALIyCcQgIAOAAAAgAACAQAAAAEAAAQCAAAAAAAAAA==

> <PUBCHEM_CACTVS_TAUTO_COUNT>
1

> <PUBCHEM_CACTVS_TPSA>
78.2

> <PUBCHEM_COMPONENT_COUNT>
1

> <PUBCHEM_COMPOUND_CANONICALIZED>
1

> <PUBCHEM_COMPOUND_CID>
2809938

> <PUBCHEM_COORDINATE_TYPE>
1
5
255

> <PUBCHEM_EXACT_MASS>
420.105625

> <PUBCHEM_HEAVY_ATOM_COUNT>
30

> <PUBCHEM_ISOTOPIC_ATOM_COUNT>
0

> <PUBCHEM_IUPAC_CAS_NAME>
8-[[3-(2,5-dimethyl-1-pyrrolyl)-4-fluoro-1-indazolyl]sulfonyl]quinoline

> <PUBCHEM_IUPAC_INCHI>
InChI=1S/C22H17FN4O2S/c1-14-11-12-15(2)26(14)22-20-17(23)8-4-9-18(20)27(25-22)30(28,29)19-10-3-6-16-7-5-13-24-21(16)19/h3-13H,1-2H3

> <PUBCHEM_IUPAC_INCHIKEY>
WGJKWEIOYXFSSO-UHFFFAOYSA-N

> <PUBCHEM_IUPAC_NAME>
8-[3-(2,5-dimethylpyrrol-1-yl)-4-fluoroindazol-1-yl]sulfonylquinoline

> <PUBCHEM_IUPAC_OPENEYE_NAME>
8-[3-(2,5-dimethylpyrrol-1-yl)-4-fluoro-indazol-1-yl]sulfonylquinoline

> <PUBCHEM_IUPAC_SYSTEMATIC_NAME>
8-[3-(2,5-dimethylpyrrol-1-yl)-4-fluoranyl-indazol-1-yl]sulfonylquinoline

> <PUBCHEM_IUPAC_TRADITIONAL_NAME>
8-[3-(2,5-dimethylpyrrol-1-yl)-4-fluoro-indazol-1-yl]sulfonylquinoline

> <PUBCHEM_MOLECULAR_FORMULA>
C22H17FN4O2S

> <PUBCHEM_MOLECULAR_WEIGHT>
420.459383

> <PUBCHEM_MONOISOTOPIC_WEIGHT>
420.105625

> <PUBCHEM_OPENEYE_CAN_SMILES>
CC1=CC=C(N1C2=NN(C3=C2C(=CC=C3)F)S(=O)(=O)C4=CC=CC5=C4N=CC=C5)C

> <PUBCHEM_OPENEYE_ISO_SMILES>
CC1=CC=C(N1C2=NN(C3=C2C(=CC=C3)F)S(=O)(=O)C4=CC=CC5=C4N=CC=C5)C

> <PUBCHEM_TOTAL_CHARGE>
0

> <PUBCHEM_XLOGP3_AA>
4.7

$$$$
Written by BCL::WriteToMDL,3244010
MBcorina  10171218483D 1   1.00000     0.00000 
CORINA 3.49 0026  01.06.2011
 31 34  0  0  0  0  0  0  0  0999 V2000
   -0.0218    1.7578    0.0117 S   0  0  0  1  0  2  0  0  0  0  0  0
   -2.7923   -0.7170    0.0254 S   0  0  0  1  0  2  0  0  0  0  0  0
   -4.5939   -3.2648    0.0294 S   0  0  0  1  0  2  0  0  0  0  0  0
    4.0346    5.7231   -0.0088 S   0  0  0  1  0  2  0  0  0  0  0  0
    4.3886    1.7701   -0.0303 O   0  0  0  1  0  1  0  0  0  0  0  0
    2.2075    0.5956   -0.0158 N   0  0  0  1  0  2  0  0  0  0  0  0
   -1.8876   -3.0636    0.0048 N   0  0  0  1  0  2  0  0  0  0  0  0
    2.5039    2.9470   -0.0067 N   0  0  0  1  0  3  0  0  0  0  0  0
    0.0021   -0.0041    0.0020 C   0  0  0  1  0  3  0  0  0  0  0  0
   -1.0444   -0.9391    0.0074 C   0  0  0  1  0  3  0  0  0  0  0  0
    1.3292   -0.4274   -0.0129 C   0  0  0  1  0  3  0  0  0  0  0  0
   -0.7726   -2.3049   -0.0021 C   0  0  0  1  0  3  0  0  0  0  0  0
    1.5892   -1.8189   -0.0229 C   0  0  0  1  0  3  0  0  0  0  0  0
    0.5809   -2.7194   -0.0173 C   0  0  0  1  0  3  0  0  0  0  0  0
    1.7359    1.7941   -0.0049 C   0  0  0  1  0  3  0  0  0  0  0  0
   -3.0268   -2.4594    0.0189 C   0  0  0  1  0  3  0  0  0  0  0  0
    3.8488    2.8608   -0.0200 C   0  0  0  1  0  3  0  0  0  0  0  0
    4.6610    4.0802   -0.0219 C   0  0  0  1  0  3  0  0  0  0  0  0
    6.0272    4.1230   -0.0347 C   0  0  0  1  0  3  0  0  0  0  0  0
    6.5310    5.4019   -0.0339 C   0  0  0  1  0  3  0  0  0  0  0  0
    5.6116    6.3743   -0.0209 C   0  0  0  1  0  3  0  0  0  0  0  0
   -4.0588   -4.9938    0.0158 C   0  0  0  1  0  4  0  0  0  0  0  0
    2.6113   -2.1673   -0.0349 H   0  0  0  1  0  1  0  0  0  0  0  0
    0.8122   -3.7743   -0.0248 H   0  0  0  1  0  1  0  0  0  0  0  0
    2.0736    3.8163    0.0015 H   0  0  0  1  0  1  0  0  0  0  0  0
    6.6489    3.2399   -0.0440 H   0  0  0  1  0  1  0  0  0  0  0  0
    7.5913    5.6071   -0.0428 H   0  0  0  1  0  1  0  0  0  0  0  0
    5.8377    7.4304   -0.0188 H   0  0  0  1  0  1  0  0  0  0  0  0
   -3.4688   -5.1845   -0.8807 H   0  0  0  1  0  1  0  0  0  0  0  0
   -3.4523   -5.1934    0.8992 H   0  0  0  1  0  1  0  0  0  0  0  0
   -4.9331   -5.6448    0.0207 H   0  0  0  1  0  1  0  0  0  0  0  0
  1  9  1  0  0  0  0
  1 15  1  0  0  0  0
  2 10  1  0  0  0  0
  2 16  1  0  0  0  0
  3 16  1  0  0  0  0
  3 22  1  0  0  0  0
  4 18  1  0  0  0  0
  4 21  1  0  0  0  0
  5 17  2  0  0  0  0
  6 11  1  0  0  0  0
  6 15  2  0  0  0  0
  7 12  1  0  0  0  0
  7 16  2  0  0  0  0
  8 15  1  0  0  0  0
  8 17  1  0  0  0  0
  8 25  1  0  0  0  0
  9 10  1  0  0  0  0
  9 11  2  0  0  0  0
 10 12  2  0  0  0  0
 11 13  1  0  0  0  0
 12 14  1  0  0  0  0
 13 14  2  0  0  0  0
 13 23  1  0  0  0  0
 14 24  1  0  0  0  0
 17 18  1  0  0  0  0
 18 19  2  0  0  0  0
 19 20  1  0  0  0  0
 19 26  1  0  0  0  0
 20 21  2  0  0  0  0
 20 27  1  0  0  0  0
 21 28  1  0  0  0  0
 22 29  1  0  0  0  0
 22 30  1  0  0  0  0
 22 31  1  0  0  0  0
M  END
> <Activity>
0.84608

> <Mapped(file=504701.csv.activities,property=Cached(PUBCHEM_COMPOUND_CID))>
0.84608

> <PUBCHEM_ATOM_DEF_STEREO_COUNT>
0

> <PUBCHEM_ATOM_UDEF_STEREO_COUNT>
0

> <PUBCHEM_BONDANNOTATIONS>
1  15  8
1  9  8
10  12  8
11  13  8
12  14  8
13  14  8
18  19  8
19  20  8
2  10  8
2  16  8
20  21  8
4  18  8
4  21  8
6  11  8
6  15  8
7  12  8
7  16  8
9  10  8
9  11  8

> <PUBCHEM_BOND_DEF_STEREO_COUNT>
0

> <PUBCHEM_BOND_UDEF_STEREO_COUNT>
0

> <PUBCHEM_CACTVS_COMPLEXITY>
440

> <PUBCHEM_CACTVS_HBOND_ACCEPTOR>
5

> <PUBCHEM_CACTVS_HBOND_DONOR>
1

> <PUBCHEM_CACTVS_ROTATABLE_BOND>
3

> <PUBCHEM_CACTVS_SUBSKEYS>
AAADccBzIABwAAAAAAAAAAAAAAAAAWLEgAAwAAAAAAAAAFgB/gAAHgQQAAAACAiF1gCz0bLIEAisASVydACD8allCjlJmD0wZNiIILLgnZGEIQxogQJoyacYAAAAAACAACAAAwAAAQAAQAAGAAAAAAAAAA==

> <PUBCHEM_CACTVS_TAUTO_COUNT>
3

> <PUBCHEM_CACTVS_TPSA>
165

> <PUBCHEM_COMPONENT_COUNT>
1

> <PUBCHEM_COMPOUND_CANONICALIZED>
1

> <PUBCHEM_COMPOUND_CID>
3244010

> <PUBCHEM_COORDINATE_TYPE>
1
5
255

> <PUBCHEM_EXACT_MASS>
362.962846

> <PUBCHEM_HEAVY_ATOM_COUNT>
22

> <PUBCHEM_ISOTOPIC_ATOM_COUNT>
0

> <PUBCHEM_IUPAC_CAS_NAME>
N-[2-(methylthio)-7-thiazolo[4,5-g][1,3]benzothiazolyl]-2-thiophenecarboxamide

> <PUBCHEM_IUPAC_INCHI>
InChI=1S/C14H9N3OS4/c1-19-14-16-8-5-4-7-10(11(8)22-14)21-13(15-7)17-12(18)9-3-2-6-20-9/h2-6H,1H3,(H,15,17,18)

> <PUBCHEM_IUPAC_INCHIKEY>
CSRRIYMZCVJAAV-UHFFFAOYSA-N

> <PUBCHEM_IUPAC_NAME>
N-(2-methylsulfanyl-[1,3]thiazolo[4,5-g][1,3]benzothiazol-7-yl)thiophene-2-carboxamide

> <PUBCHEM_IUPAC_OPENEYE_NAME>
N-(2-methylsulfanylthiazolo[4,5-g][1,3]benzothiazol-7-yl)thiophene-2-carboxamide

> <PUBCHEM_IUPAC_SYSTEMATIC_NAME>
N-(2-methylsulfanyl-[1,3]thiazolo[4,5-g][1,3]benzothiazol-7-yl)thiophene-2-carboxamide

> <PUBCHEM_IUPAC_TRADITIONAL_NAME>
N-[2-(methylthio)thiazolo[4,5-g][1,3]benzothiazol-7-yl]thiophene-2-carboxamide

> <PUBCHEM_MOLECULAR_FORMULA>
C14H9N3OS4

> <PUBCHEM_MOLECULAR_WEIGHT>
363.50076

> <PUBCHEM_MONOISOTOPIC_WEIGHT>
362.962846

> <PUBCHEM_OPENEYE_CAN_SMILES>
CSC1=NC2=C(S1)C3=C(C=C2)N=C(S3)NC(=O)C4=CC=CS4

> <PUBCHEM_OPENEYE_ISO_SMILES>
CSC1=NC2=C(S1)C3=C(C=C2)N=C(S3)NC(=O)C4=CC=CS4

> <PUBCHEM_TOTAL_CHARGE>
0

> <PUBCHEM_XLOGP3_AA>
4.9

$$$$
Written by BCL::WriteToMDL,9583800
MBcorina  10171218483D 1   1.00000     0.00000 
CORINA 3.49 0026  01.06.2011
 31 32  0  0  0  0  0  0  0  0999 V2000
   -0.0220    1.7685    0.0118 S   0  0  0  1  0  2  0  0  0  0  0  0
    2.5776    3.4024   -0.0043 S   0  0  0  1  0  1  0  0  0  0  0  0
   -0.9285   -2.0851    0.0005 O   0  0  0  1  0  1  0  0  0  0  0  0
    2.1938    0.6948   -0.0152 N   0  0  0  1  0  3  0  0  0  0  0  0
    1.7482   -1.6478   -0.0230 N   0  0  0  1  0  3  0  0  0  0  0  0
   -2.3573   -0.3813    0.0229 N   0  0  0  1  0  3  0  0  0  0  0  0
   -3.4563   -1.2500    0.0291 N   0  0  0  1  0  2  0  0  0  0  0  0
    1.3252   -0.3372   -0.0124 C   0  0  0  1  0  3  0  0  0  0  0  0
    0.0021   -0.0041    0.0020 C   0  0  0  1  0  3  0  0  0  0  0  0
    1.6914    1.9376   -0.0037 C   0  0  0  1  0  3  0  0  0  0  0  0
    3.6406    0.4648   -0.0307 C   0  0  0  1  0  4  0  0  0  0  0  0
   -1.1049   -0.8791    0.0083 C   0  0  0  1  0  3  0  0  0  0  0  0
   -5.8192   -1.6852    0.0497 C   0  0  0  1  0  3  0  0  0  0  0  0
   -7.1187   -1.1728    0.0648 C   0  0  0  1  0  3  0  0  0  0  0  0
   -5.6209   -3.0679    0.0351 C   0  0  0  1  0  3  0  0  0  0  0  0
   -4.6623   -0.7707    0.0431 C   0  0  0  1  0  3  0  0  0  0  0  0
   -8.1961   -2.0341    0.0652 C   0  0  0  1  0  3  0  0  0  0  0  0
   -6.7077   -3.9172    0.0356 C   0  0  0  1  0  3  0  0  0  0  0  0
   -7.9921   -3.4026    0.0506 C   0  0  0  1  0  3  0  0  0  0  0  0
    3.9893    0.4135   -1.0621 H   0  0  0  1  0  1  0  0  0  0  0  0
    4.1442    1.2837    0.4828 H   0  0  0  1  0  1  0  0  0  0  0  0
    3.8646   -0.4741    0.4757 H   0  0  0  1  0  1  0  0  0  0  0  0
    2.6966   -1.8513   -0.0329 H   0  0  0  1  0  1  0  0  0  0  0  0
    1.0978   -2.3674   -0.0207 H   0  0  0  1  0  1  0  0  0  0  0  0
   -2.4976    0.5785    0.0291 H   0  0  0  1  0  1  0  0  0  0  0  0
   -7.2794   -0.1049    0.0765 H   0  0  0  1  0  1  0  0  0  0  0  0
   -4.6190   -3.4709    0.0230 H   0  0  0  1  0  1  0  0  0  0  0  0
   -4.8186    0.2979    0.0500 H   0  0  0  1  0  1  0  0  0  0  0  0
   -9.2013   -1.6393    0.0772 H   0  0  0  1  0  1  0  0  0  0  0  0
   -6.5559   -4.9864    0.0243 H   0  0  0  1  0  1  0  0  0  0  0  0
   -8.8394   -4.0723    0.0513 H   0  0  0  1  0  1  0  0  0  0  0  0
  1  9  1  0  0  0  0
  1 10  1  0  0  0  0
  2 10  2  0  0  0  0
  3 12  2  0  0  0  0
  4  8  1  0  0  0  0
  4 10  1  0  0  0  0
  4 11  1  0  0  0  0
  5  8  1  0  0  0  0
  5 23  1  0  0  0  0
  5 24  1  0  0  0  0
  6  7  1  0  0  0  0
  6 12  1  0  0  0  0
  6 25  1  0  0  0  0
  7 16  2  0  0  0  0
  8  9  2  0  0  0  0
  9 12  1  0  0  0  0
 11 20  1  0  0  0  0
 11 21  1  0  0  0  0
 11 22  1  0  0  0  0
 13 14  2  0  0  0  0
 13 15  1  0  0  0  0
 13 16  1  0  0  0  0
 14 17  1  0  0  0  0
 14 26  1  0  0  0  0
 15 18  2  0  0  0  0
 15 27  1  0  0  0  0
 16 28  1  0  0  0  0
 17 19  2  0  0  0  0
 17 29  1  0  0  0  0
 18 19  1  0  0  0  0
 18 30  1  0  0  0  0
 19 31  1  0  0  0  0
M  END
> <Activity>
1.59

> <Mapped(file=504701.csv.activities,property=Cached(PUBCHEM_COMPOUND_CID))>
1.59

> <PUBCHEM_ATOM_DEF_STEREO_COUNT>
0

> <PUBCHEM_ATOM_UDEF_STEREO_COUNT>
0

> <PUBCHEM_BONDANNOTATIONS>
1  10  8
1  9  8
13  14  8
13  15  8
14  17  8
15  18  8
17  19  8
18  19  8
4  10  8
4  8  8
8  9  8

> <PUBCHEM_BOND_DEF_STEREO_COUNT>
1

> <PUBCHEM_BOND_UDEF_STEREO_COUNT>
0

> <PUBCHEM_CACTVS_COMPLEXITY>
441

> <PUBCHEM_CACTVS_HBOND_ACCEPTOR>
5

> <PUBCHEM_CACTVS_HBOND_DONOR>
2

> <PUBCHEM_CACTVS_ROTATABLE_BOND>
3

> <PUBCHEM_CACTVS_SUBSKEYS>
AAADccBzoABgAAAAAAAAAAAAAAAAAQAAAAAwAAAAAAAAAAABAAAAHgQYAAAADADB2AQzAINiAAisAjFzUACSAABgABgaiAAoANiIIKKAERCAIAAgiAAIiEcAgAAOAAAAAAAAAAAAAAAAAAAAAAAAAAAAAA==

> <PUBCHEM_CACTVS_TAUTO_COUNT>
5

> <PUBCHEM_CACTVS_TPSA>
128

> <PUBCHEM_COMPONENT_COUNT>
1

> <PUBCHEM_COMPOUND_CANONICALIZED>
1

> <PUBCHEM_COMPOUND_CID>
9583800

> <PUBCHEM_COORDINATE_TYPE>
1
5
255

> <PUBCHEM_EXACT_MASS>
292.045253

> <PUBCHEM_HEAVY_ATOM_COUNT>
19

> <PUBCHEM_ISOTOPIC_ATOM_COUNT>
0

> <PUBCHEM_IUPAC_CAS_NAME>
4-amino-3-methyl-N-[(E)-(phenylmethylene)amino]-2-sulfanylidene-5-thiazolecarboxamide

> <PUBCHEM_IUPAC_INCHI>
InChI=1S/C12H12N4OS2/c1-16-10(13)9(19-12(16)18)11(17)15-14-7-8-5-3-2-4-6-8/h2-7H,13H2,1H3,(H,15,17)/b14-7+

> <PUBCHEM_IUPAC_INCHIKEY>
FDULOSNQQBHPAU-VGOFMYFVSA-N

> <PUBCHEM_IUPAC_NAME>
4-amino-N-[(E)-benzylideneamino]-3-methyl-2-sulfanylidene-1,3-thiazole-5-carboxamide

> <PUBCHEM_IUPAC_OPENEYE_NAME>
4-amino-N-[(E)-benzylideneamino]-3-methyl-2-thioxo-thiazole-5-carboxamide

> <PUBCHEM_IUPAC_SYSTEMATIC_NAME>
4-azanyl-3-methyl-N-[(E)-(phenylmethylidene)amino]-2-sulfanylidene-1,3-thiazole-5-carboxamide

> <PUBCHEM_IUPAC_TRADITIONAL_NAME>
4-amino-N-[(E)-benzalamino]-3-methyl-2-thioxo-4-thiazoline-5-carboxamide

> <PUBCHEM_MOLECULAR_FORMULA>
C12H12N4OS2

> <PUBCHEM_MOLECULAR_WEIGHT>
292.37988

> <PUBCHEM_MONOISOTOPIC_WEIGHT>
292.045253

> <PUBCHEM_OPENEYE_CAN_SMILES>
CN1C(=C(SC1=S)C(=O)NN=CC2=CC=CC=C2)N

> <PUBCHEM_OPENEYE_ISO_SMILES>
CN1C(=C(SC1=S)C(=O)N/N=C/C2=CC=CC=C2)N

> <PUBCHEM_TOTAL_CHARGE>
0

> <PUBCHEM_XLOGP3_AA>
2.2

$$$$
Written by BCL::WriteToMDL,1719534
MBcorina  10171218483D 1   1.00000     0.00000 
CORINA 3.49 0026  01.06.2011
 50 53  0  0  0  0  0  0  0  0999 V2000
   -4.1706   -0.6292    1.4855 O   0  0  0  1  0  1  0  0  0  0  0  0
    1.0647   -0.8168   -1.3219 O   0  0  0  1  0  2  0  0  0  0  0  0
   -0.2556    2.5144    1.8051 O   0  0  0  1  0  2  0  0  0  0  0  0
   -8.7563   -4.2676    0.3495 N   0  0  0  1  0  3  0  0  0  0  0  0
   -3.6144   -2.2117    0.0299 N   0  0  0  1  0  3  0  0  0  0  0  0
   -7.4092   -3.9592    0.2513 C   0  0  0  1  0  3  0  0  0  0  0  0
   -7.2688   -2.5657    0.3255 C   0  0  0  1  0  3  0  0  0  0  0  0
   -9.5037   -3.1116    0.4863 C   0  0  0  1  0  3  0  0  0  0  0  0
   -8.6283   -2.0152    0.4781 C   0  0  0  1  0  3  0  0  0  0  0  0
   -9.3103   -5.6231    0.3081 C   0  0  0  1  0  4  0  0  0  0  0  0
   -6.0047   -1.9855    0.2518 C   0  0  0  1  0  3  0  0  0  0  0  0
   -6.2760   -4.7536    0.1032 C   0  0  0  1  0  3  0  0  0  0  0  0
  -10.8708   -2.8902    0.6199 C   0  0  0  1  0  3  0  0  0  0  0  0
   -9.1289   -0.7217    0.6020 C   0  0  0  1  0  3  0  0  0  0  0  0
   -4.8880   -2.7899    0.1045 C   0  0  0  1  0  3  0  0  0  0  0  0
   -5.0290   -4.1731    0.0310 C   0  0  0  1  0  3  0  0  0  0  0  0
   -9.3768   -6.1905    1.7274 C   0  0  0  1  0  4  0  0  0  0  0  0
  -11.3530   -1.6047    0.7423 C   0  0  0  1  0  3  0  0  0  0  0  0
  -10.4867   -0.5226    0.7326 C   0  0  0  1  0  3  0  0  0  0  0  0
   -3.3430   -1.0877    0.7222 C   0  0  0  1  0  3  0  0  0  0  0  0
   -2.0387   -0.4123    0.5534 C   0  0  0  1  0  3  0  0  0  0  0  0
   -1.7557    0.7515    1.2692 C   0  0  0  1  0  3  0  0  0  0  0  0
   -1.0853   -0.9398   -0.3181 C   0  0  0  1  0  3  0  0  0  0  0  0
    0.1353   -0.3039   -0.4733 C   0  0  0  1  0  3  0  0  0  0  0  0
   -0.5323    1.3808    1.1084 C   0  0  0  1  0  3  0  0  0  0  0  0
    0.4108    0.8558    0.2367 C   0  0  0  1  0  3  0  0  0  0  0  0
    2.3016   -0.1101   -1.4335 C   0  0  0  1  0  4  0  0  0  0  0  0
    1.0250    3.1112    1.5909 C   0  0  0  1  0  4  0  0  0  0  0  0
  -10.3130   -5.5930   -0.1185 H   0  0  0  1  0  1  0  0  0  0  0  0
   -8.6726   -6.2577   -0.3073 H   0  0  0  1  0  1  0  0  0  0  0  0
   -5.8964   -0.9125    0.3090 H   0  0  0  1  0  1  0  0  0  0  0  0
   -6.3746   -5.8275    0.0451 H   0  0  0  1  0  1  0  0  0  0  0  0
  -11.5547   -3.7261    0.6276 H   0  0  0  1  0  1  0  0  0  0  0  0
   -8.4556    0.1227    0.5960 H   0  0  0  1  0  1  0  0  0  0  0  0
   -4.1540   -4.7957   -0.0832 H   0  0  0  1  0  1  0  0  0  0  0  0
   -9.7891   -7.1991    1.6966 H   0  0  0  1  0  1  0  0  0  0  0  0
   -8.3742   -6.2207    2.1540 H   0  0  0  1  0  1  0  0  0  0  0  0
  -10.0146   -5.5560    2.3429 H   0  0  0  1  0  1  0  0  0  0  0  0
  -12.4153   -1.4390    0.8453 H   0  0  0  1  0  1  0  0  0  0  0  0
  -10.8768    0.4798    0.8288 H   0  0  0  1  0  1  0  0  0  0  0  0
   -2.9277   -2.6203   -0.5201 H   0  0  0  1  0  1  0  0  0  0  0  0
   -2.4895    1.1612    1.9474 H   0  0  0  1  0  1  0  0  0  0  0  0
   -1.2987   -1.8429   -0.8707 H   0  0  0  1  0  1  0  0  0  0  0  0
    1.3637    1.3489    0.1137 H   0  0  0  1  0  1  0  0  0  0  0  0
    2.7863   -0.0698   -0.4580 H   0  0  0  1  0  1  0  0  0  0  0  0
    2.9516   -0.6247   -2.1411 H   0  0  0  1  0  1  0  0  0  0  0  0
    2.1105    0.9034   -1.7863 H   0  0  0  1  0  1  0  0  0  0  0  0
    1.1163    4.0063    2.2062 H   0  0  0  1  0  1  0  0  0  0  0  0
    1.8066    2.4018    1.8633 H   0  0  0  1  0  1  0  0  0  0  0  0
    1.1291    3.3806    0.5398 H   0  0  0  1  0  1  0  0  0  0  0  0
  1 20  2  0  0  0  0
  2 24  1  0  0  0  0
  2 27  1  0  0  0  0
  3 25  1  0  0  0  0
  3 28  1  0  0  0  0
  4  6  1  0  0  0  0
  4  8  1  0  0  0  0
  4 10  1  0  0  0  0
  5 15  1  0  0  0  0
  5 20  1  0  0  0  0
  5 41  1  0  0  0  0
  6  7  2  0  0  0  0
  6 12  1  0  0  0  0
  7  9  1  0  0  0  0
  7 11  1  0  0  0  0
  8  9  1  0  0  0  0
  8 13  2  0  0  0  0
  9 14  2  0  0  0  0
 10 17  1  0  0  0  0
 10 29  1  0  0  0  0
 10 30  1  0  0  0  0
 11 15  2  0  0  0  0
 11 31  1  0  0  0  0
 12 16  2  0  0  0  0
 12 32  1  0  0  0  0
 13 18  1  0  0  0  0
 13 33  1  0  0  0  0
 14 19  1  0  0  0  0
 14 34  1  0  0  0  0
 15 16  1  0  0  0  0
 16 35  1  0  0  0  0
 17 36  1  0  0  0  0
 17 37  1  0  0  0  0
 17 38  1  0  0  0  0
 18 19  2  0  0  0  0
 18 39  1  0  0  0  0
 19 40  1  0  0  0  0
 20 21  1  0  0  0  0
 21 22  2  0  0  0  0
 21 23  1  0  0  0  0
 22 25  1  0  0  0  0
 22 42  1  0  0  0  0
 23 24  2  0  0  0  0
 23 43  1  0  0  0  0
 24 26  1  0  0  0  0
 25 26  2  0  0  0  0
 26 44  1  0  0  0  0
 27 45  1  0  0  0  0
 27 46  1  0  0  0  0
 27 47  1  0  0  0  0
 28 48  1  0  0  0  0
 28 49  1  0  0  0  0
 28 50  1  0  0  0  0
M  END
> <Activity>
0.55364

> <Mapped(file=504701.csv.activities,property=Cached(PUBCHEM_COMPOUND_CID))>
0.55364

> <PUBCHEM_ATOM_DEF_STEREO_COUNT>
0

> <PUBCHEM_ATOM_UDEF_STEREO_COUNT>
0

> <PUBCHEM_BONDANNOTATIONS>
11  15  8
12  16  8
13  18  8
14  19  8
15  16  8
18  19  8
21  22  8
21  23  8
22  25  8
23  24  8
24  26  8
25  26  8
4  6  8
4  8  8
6  12  8
6  7  8
7  11  8
7  9  8
8  13  8
8  9  8
9  14  8

> <PUBCHEM_BOND_DEF_STEREO_COUNT>
0

> <PUBCHEM_BOND_UDEF_STEREO_COUNT>
0

> <PUBCHEM_CACTVS_COMPLEXITY>
530

> <PUBCHEM_CACTVS_HBOND_ACCEPTOR>
3

> <PUBCHEM_CACTVS_HBOND_DONOR>
1

> <PUBCHEM_CACTVS_ROTATABLE_BOND>
5

> <PUBCHEM_CACTVS_SUBSKEYS>
AAADceB7MAAAAAAAAAAAAAAAAAAAAWAAAAAwYMAAAAAAAFgB/AAAHgAQAAAADAzBngYyxvPMFACoAyVyVACCiCAlIiAI2CE+bNgMJ/LEtZuEMShl1BXI6Ye66NyOgACBSAACAAAAAQKQAAQAAAAAAAAAAA==

> <PUBCHEM_CACTVS_TAUTO_COUNT>
2

> <PUBCHEM_CACTVS_TPSA>
52.5

> <PUBCHEM_COMPONENT_COUNT>
1

> <PUBCHEM_COMPOUND_CANONICALIZED>
1

> <PUBCHEM_COMPOUND_CID>
1719534

> <PUBCHEM_COORDINATE_TYPE>
1
5
255

> <PUBCHEM_EXACT_MASS>
374.163043

> <PUBCHEM_HEAVY_ATOM_COUNT>
28

> <PUBCHEM_ISOTOPIC_ATOM_COUNT>
0

> <PUBCHEM_IUPAC_CAS_NAME>
N-(9-ethyl-3-carbazolyl)-3,5-dimethoxybenzamide

> <PUBCHEM_IUPAC_INCHI>
InChI=1S/C23H22N2O3/c1-4-25-21-8-6-5-7-19(21)20-13-16(9-10-22(20)25)24-23(26)15-11-17(27-2)14-18(12-15)28-3/h5-14H,4H2,1-3H3,(H,24,26)

> <PUBCHEM_IUPAC_INCHIKEY>
XSJVGJUQPNTJSP-UHFFFAOYSA-N

> <PUBCHEM_IUPAC_NAME>
N-(9-ethylcarbazol-3-yl)-3,5-dimethoxybenzamide

> <PUBCHEM_IUPAC_OPENEYE_NAME>
N-(9-ethylcarbazol-3-yl)-3,5-dimethoxy-benzamide

> <PUBCHEM_IUPAC_SYSTEMATIC_NAME>
N-(9-ethylcarbazol-3-yl)-3,5-dimethoxy-benzamide

> <PUBCHEM_IUPAC_TRADITIONAL_NAME>
N-(9-ethylcarbazol-3-yl)-3,5-dimethoxy-benzamide

> <PUBCHEM_MOLECULAR_FORMULA>
C23H22N2O3

> <PUBCHEM_MOLECULAR_WEIGHT>
374.43238

> <PUBCHEM_MONOISOTOPIC_WEIGHT>
374.163043

> <PUBCHEM_OPENEYE_CAN_SMILES>
CCN1C2=C(C=C(C=C2)NC(=O)C3=CC(=CC(=C3)OC)OC)C4=CC=CC=C41

> <PUBCHEM_OPENEYE_ISO_SMILES>
CCN1C2=C(C=C(C=C2)NC(=O)C3=CC(=CC(=C3)OC)OC)C4=CC=CC=C41

> <PUBCHEM_TOTAL_CHARGE>
0

> <PUBCHEM_XLOGP3_AA>
4.4

$$$$
Written by BCL::WriteToMDL,4537700
MBcorina  10171218483D 1   1.00000     0.00000 
CORINA 3.49 0026  01.06.2011
 47 49  0  0  0  0  0  0  0  0999 V2000
   -0.0162    1.3454    0.0094 O   0  0  0  1  0  2  0  0  0  0  0  0
   -2.4180   -0.3149    0.0238 O   0  0  0  1  0  2  0  0  0  0  0  0
   -4.6201    0.5578    1.1409 O   0  0  0  1  0  1  0  0  0  0  0  0
   -1.0616   -2.0745    0.0019 O   0  0  0  1  0  1  0  0  0  0  0  0
   -5.8331   -1.2923    0.9744 N   0  0  0  1  0  3  0  0  0  0  0  0
   -3.5477   -1.2271    0.0302 C   0  0  0  1  0  4  0  0  0  0  0  0
    1.2873   -0.4453   -0.0126 C   0  0  0  1  0  3  0  0  0  0  0  0
    2.1265    0.7521   -0.0142 C   0  0  0  1  0  3  0  0  0  0  0  0
   -6.9577   -0.6718    1.6790 C   0  0  0  1  0  4  0  0  0  0  0  0
    0.0021   -0.0041    0.0020 C   0  0  0  1  0  3  0  0  0  0  0  0
   -4.7046   -0.5888    0.7550 C   0  0  0  1  0  3  0  0  0  0  0  0
    1.2359    1.8423    0.0002 C   0  0  0  1  0  3  0  0  0  0  0  0
   -7.8683   -0.0034    0.6815 C   0  0  0  1  0  3  0  0  0  0  0  0
   -1.1869   -0.8652    0.0092 C   0  0  0  1  0  3  0  0  0  0  0  0
   -3.9585   -1.5402   -1.4100 C   0  0  0  1  0  4  0  0  0  0  0  0
    3.5054    0.9746   -0.0262 C   0  0  0  1  0  3  0  0  0  0  0  0
   -5.9351   -2.6774    0.5082 C   0  0  0  1  0  4  0  0  0  0  0  0
    1.7533   -1.8784   -0.0255 C   0  0  0  1  0  4  0  0  0  0  0  0
    1.7474    3.1346    0.0022 C   0  0  0  1  0  3  0  0  0  0  0  0
    3.9850    2.2542   -0.0239 C   0  0  0  1  0  3  0  0  0  0  0  0
   -8.9127   -0.7110    0.1165 C   0  0  0  1  0  3  0  0  0  0  0  0
   -7.6624    1.3191    0.3357 C   0  0  0  1  0  3  0  0  0  0  0  0
    3.1114    3.3327   -0.0098 C   0  0  0  1  0  3  0  0  0  0  0  0
   -9.7480   -0.0978   -0.7985 C   0  0  0  1  0  3  0  0  0  0  0  0
   -8.4977    1.9323   -0.5793 C   0  0  0  1  0  3  0  0  0  0  0  0
   -9.5390    1.2231   -1.1483 C   0  0  0  1  0  3  0  0  0  0  0  0
   -3.2664   -2.1503    0.5367 H   0  0  0  1  0  1  0  0  0  0  0  0
   -7.5128   -1.4368    2.2220 H   0  0  0  1  0  1  0  0  0  0  0  0
   -6.5807    0.0712    2.3818 H   0  0  0  1  0  1  0  0  0  0  0  0
   -3.1217   -2.0018   -1.9343 H   0  0  0  1  0  1  0  0  0  0  0  0
   -4.8065   -2.2249   -1.4052 H   0  0  0  1  0  1  0  0  0  0  0  0
   -4.2397   -0.6169   -1.9165 H   0  0  0  1  0  1  0  0  0  0  0  0
    4.1896    0.1390   -0.0376 H   0  0  0  1  0  1  0  0  0  0  0  0
   -6.3401   -2.6913   -0.5037 H   0  0  0  1  0  1  0  0  0  0  0  0
   -4.9459   -3.1351    0.5099 H   0  0  0  1  0  1  0  0  0  0  0  0
   -6.5952   -3.2363    1.1715 H   0  0  0  1  0  1  0  0  0  0  0  0
    1.8759   -2.2298    0.9990 H   0  0  0  1  0  1  0  0  0  0  0  0
    1.0141   -2.4962   -0.5355 H   0  0  0  1  0  1  0  0  0  0  0  0
    2.7068   -1.9457   -0.5493 H   0  0  0  1  0  1  0  0  0  0  0  0
    1.0776    3.9817    0.0128 H   0  0  0  1  0  1  0  0  0  0  0  0
   -9.0760   -1.7430    0.3898 H   0  0  0  1  0  1  0  0  0  0  0  0
   -6.8493    1.8734    0.7806 H   0  0  0  1  0  1  0  0  0  0  0  0
    5.0510    2.4275   -0.0328 H   0  0  0  1  0  1  0  0  0  0  0  0
    3.5049    4.3385   -0.0085 H   0  0  0  1  0  1  0  0  0  0  0  0
  -10.5636   -0.6509   -1.2404 H   0  0  0  1  0  1  0  0  0  0  0  0
   -8.3371    2.9656   -0.8492 H   0  0  0  1  0  1  0  0  0  0  0  0
  -10.1913    1.7021   -1.8634 H   0  0  0  1  0  1  0  0  0  0  0  0
  1 10  1  0  0  0  0
  1 12  1  0  0  0  0
  2  6  1  0  0  0  0
  2 14  1  0  0  0  0
  3 11  2  0  0  0  0
  4 14  2  0  0  0  0
  5  9  1  0  0  0  0
  5 11  1  0  0  0  0
  5 17  1  0  0  0  0
  6 11  1  0  0  0  0
  6 15  1  0  0  0  0
  6 27  1  0  0  0  0
  7  8  1  0  0  0  0
  7 10  2  0  0  0  0
  7 18  1  0  0  0  0
  8 12  1  0  0  0  0
  8 16  2  0  0  0  0
  9 13  1  0  0  0  0
  9 28  1  0  0  0  0
  9 29  1  0  0  0  0
 10 14  1  0  0  0  0
 12 19  2  0  0  0  0
 13 21  2  0  0  0  0
 13 22  1  0  0  0  0
 15 30  1  0  0  0  0
 15 31  1  0  0  0  0
 15 32  1  0  0  0  0
 16 20  1  0  0  0  0
 16 33  1  0  0  0  0
 17 34  1  0  0  0  0
 17 35  1  0  0  0  0
 17 36  1  0  0  0  0
 18 37  1  0  0  0  0
 18 38  1  0  0  0  0
 18 39  1  0  0  0  0
 19 23  1  0  0  0  0
 19 40  1  0  0  0  0
 20 23  2  0  0  0  0
 20 43  1  0  0  0  0
 21 24  1  0  0  0  0
 21 41  1  0  0  0  0
 22 25  2  0  0  0  0
 22 42  1  0  0  0  0
 23 44  1  0  0  0  0
 24 26  2  0  0  0  0
 24 45  1  0  0  0  0
 25 26  1  0  0  0  0
 25 46  1  0  0  0  0
 26 47  1  0  0  0  0
M  END
> <Activity>
0.71697

> <Mapped(file=504701.csv.activities,property=Cached(PUBCHEM_COMPOUND_CID))>
0.71697

> <PUBCHEM_ATOM_DEF_STEREO_COUNT>
0

> <PUBCHEM_ATOM_UDEF_STEREO_COUNT>
1

> <PUBCHEM_BONDANNOTATIONS>
1  10  8
1  12  8
12  19  8
13  21  8
13  22  8
16  20  8
19  23  8
20  23  8
21  24  8
22  25  8
24  26  8
25  26  8
6  15  3
7  10  8
7  8  8
8  12  8
8  16  8

> <PUBCHEM_BOND_DEF_STEREO_COUNT>
0

> <PUBCHEM_BOND_UDEF_STEREO_COUNT>
0

> <PUBCHEM_CACTVS_COMPLEXITY>
502

> <PUBCHEM_CACTVS_HBOND_ACCEPTOR>
4

> <PUBCHEM_CACTVS_HBOND_DONOR>
0

> <PUBCHEM_CACTVS_ROTATABLE_BOND>
6

> <PUBCHEM_CACTVS_SUBSKEYS>
AAADceB6OAAAAAAAAAAAAAAAAAAAASAAAAAwYAAAAAAAAEgB9AAAHgAAAAAADBThmAYyDsMABECIAqHSGAKCCAAkIAAIiAFODMgPJjKEtR+HOSjkxhGaqYeY7uzugAAAAAAIAAAAAAAAABAAAAAAAAAAAA==

> <PUBCHEM_CACTVS_TAUTO_COUNT>
1

> <PUBCHEM_CACTVS_TPSA>
59.8

> <PUBCHEM_COMPONENT_COUNT>
1

> <PUBCHEM_COMPOUND_CANONICALIZED>
1

> <PUBCHEM_COMPOUND_CID>
4537700

> <PUBCHEM_COORDINATE_TYPE>
1
5
255

> <PUBCHEM_EXACT_MASS>
351.147058

> <PUBCHEM_HEAVY_ATOM_COUNT>
26

> <PUBCHEM_ISOTOPIC_ATOM_COUNT>
0

> <PUBCHEM_IUPAC_CAS_NAME>
3-methyl-2-benzofurancarboxylic acid [1-[methyl-(phenylmethyl)amino]-1-oxopropan-2-yl] ester

> <PUBCHEM_IUPAC_INCHI>
InChI=1S/C21H21NO4/c1-14-17-11-7-8-12-18(17)26-19(14)21(24)25-15(2)20(23)22(3)13-16-9-5-4-6-10-16/h4-12,15H,13H2,1-3H3

> <PUBCHEM_IUPAC_INCHIKEY>
VEZLITRWVQHJDJ-UHFFFAOYSA-N

> <PUBCHEM_IUPAC_NAME>
[1-[benzyl(methyl)amino]-1-oxopropan-2-yl] 3-methyl-1-benzofuran-2-carboxylate

> <PUBCHEM_IUPAC_OPENEYE_NAME>
[2-[benzyl(methyl)amino]-1-methyl-2-oxo-ethyl] 3-methylbenzofuran-2-carboxylate

> <PUBCHEM_IUPAC_SYSTEMATIC_NAME>
[1-[methyl-(phenylmethyl)amino]-1-oxidanylidene-propan-2-yl] 3-methyl-1-benzofuran-2-carboxylate

> <PUBCHEM_IUPAC_TRADITIONAL_NAME>
3-methylcoumarilic acid [2-[benzyl(methyl)amino]-2-keto-1-methyl-ethyl] ester

> <PUBCHEM_MOLECULAR_FORMULA>
C21H21NO4

> <PUBCHEM_MOLECULAR_WEIGHT>
351.39574

> <PUBCHEM_MONOISOTOPIC_WEIGHT>
351.147058

> <PUBCHEM_OPENEYE_CAN_SMILES>
CC1=C(OC2=CC=CC=C12)C(=O)OC(C)C(=O)N(C)CC3=CC=CC=C3

> <PUBCHEM_OPENEYE_ISO_SMILES>
CC1=C(OC2=CC=CC=C12)C(=O)OC(C)C(=O)N(C)CC3=CC=CC=C3

> <PUBCHEM_TOTAL_CHARGE>
0

> <PUBCHEM_XLOGP3_AA>
4.3

$$$$
Written by BCL::WriteToMDL,2421435
MBcorina  10171218483D 1   1.00000     0.00000 
CORINA 3.49 0026  01.06.2011
 32 35  0  0  0  0  0  0  0  0999 V2000
   -0.0162    1.3424    0.0094 O   0  0  0  1  0  2  0  0  0  0  0  0
    1.2378   -0.4360   -0.0121 N   0  0  0  1  0  2  0  0  0  0  0  0
   -4.5726   -3.2334    0.0287 N   0  0  0  1  0  2  0  0  0  0  0  0
   -2.1966   -3.0566    0.0074 C   0  0  0  1  0  3  0  0  0  0  0  0
   -1.1969   -0.8675    0.0093 C   0  0  0  1  0  3  0  0  0  0  0  0
   -1.0533   -2.2452    0.0005 C   0  0  0  1  0  3  0  0  0  0  0  0
   -3.4828   -2.4600    0.0229 C   0  0  0  1  0  3  0  0  0  0  0  0
   -2.0952   -4.4613   -0.0016 C   0  0  0  1  0  3  0  0  0  0  0  0
    0.0021   -0.0041    0.0020 C   0  0  0  1  0  3  0  0  0  0  0  0
   -2.4772   -0.2856    0.0251 C   0  0  0  1  0  3  0  0  0  0  0  0
   -3.5938   -1.0568    0.0320 C   0  0  0  1  0  3  0  0  0  0  0  0
    1.2625    1.7801   -0.0004 C   0  0  0  1  0  3  0  0  0  0  0  0
    2.0740    0.6335   -0.0143 C   0  0  0  1  0  3  0  0  0  0  0  0
   -3.2500   -5.1911    0.0046 C   0  0  0  1  0  3  0  0  0  0  0  0
   -0.7500   -5.1405   -0.0191 C   0  0  0  1  0  4  0  0  0  0  0  0
   -4.4819   -4.5415    0.0204 C   0  0  0  1  0  3  0  0  0  0  0  0
    1.8460    3.0372    0.0007 C   0  0  0  1  0  3  0  0  0  0  0  0
    3.4641    0.7711   -0.0273 C   0  0  0  1  0  3  0  0  0  0  0  0
    3.2207    3.1574   -0.0117 C   0  0  0  1  0  3  0  0  0  0  0  0
    4.0258    2.0283   -0.0263 C   0  0  0  1  0  3  0  0  0  0  0  0
   -0.0693   -2.6904   -0.0113 H   0  0  0  1  0  1  0  0  0  0  0  0
   -2.5731    0.7901    0.0322 H   0  0  0  1  0  1  0  0  0  0  0  0
   -4.5691   -0.5932    0.0438 H   0  0  0  1  0  1  0  0  0  0  0  0
   -3.2077   -6.2703   -0.0023 H   0  0  0  1  0  1  0  0  0  0  0  0
   -0.4153   -5.3101    1.0043 H   0  0  0  1  0  1  0  0  0  0  0  0
   -0.8320   -6.0958   -0.5375 H   0  0  0  1  0  1  0  0  0  0  0  0
   -0.0298   -4.5069   -0.5366 H   0  0  0  1  0  1  0  0  0  0  0  0
   -5.3868   -5.1311    0.0255 H   0  0  0  1  0  1  0  0  0  0  0  0
    1.2258    3.9213    0.0111 H   0  0  0  1  0  1  0  0  0  0  0  0
    4.0956   -0.1050   -0.0377 H   0  0  0  1  0  1  0  0  0  0  0  0
    3.6729    4.1382   -0.0111 H   0  0  0  1  0  1  0  0  0  0  0  0
    5.1004    2.1358   -0.0359 H   0  0  0  1  0  1  0  0  0  0  0  0
  1  9  1  0  0  0  0
  1 12  1  0  0  0  0
  2  9  2  0  0  0  0
  2 13  1  0  0  0  0
  3  7  2  0  0  0  0
  3 16  1  0  0  0  0
  4  6  1  0  0  0  0
  4  7  1  0  0  0  0
  4  8  2  0  0  0  0
  5  6  2  0  0  0  0
  5  9  1  0  0  0  0
  5 10  1  0  0  0  0
  6 21  1  0  0  0  0
  7 11  1  0  0  0  0
  8 14  1  0  0  0  0
  8 15  1  0  0  0  0
 10 11  2  0  0  0  0
 10 22  1  0  0  0  0
 11 23  1  0  0  0  0
 12 13  1  0  0  0  0
 12 17  2  0  0  0  0
 13 18  2  0  0  0  0
 14 16  2  0  0  0  0
 14 24  1  0  0  0  0
 15 25  1  0  0  0  0
 15 26  1  0  0  0  0
 15 27  1  0  0  0  0
 16 28  1  0  0  0  0
 17 19  1  0  0  0  0
 17 29  1  0  0  0  0
 18 20  1  0  0  0  0
 18 30  1  0  0  0  0
 19 20  2  0  0  0  0
 19 31  1  0  0  0  0
 20 32  1  0  0  0  0
M  END
> <Activity>
1.105

> <Mapped(file=504701.csv.activities,property=Cached(PUBCHEM_COMPOUND_CID))>
1.105

> <PUBCHEM_ATOM_DEF_STEREO_COUNT>
0

> <PUBCHEM_ATOM_UDEF_STEREO_COUNT>
0

> <PUBCHEM_BONDANNOTATIONS>
1  12  8
1  9  8
10  11  8
12  13  8
12  17  8
13  18  8
14  16  8
17  19  8
18  20  8
19  20  8
2  13  8
2  9  8
3  16  8
3  7  8
4  6  8
4  7  8
4  8  8
5  10  8
5  6  8
7  11  8
8  14  8

> <PUBCHEM_BOND_DEF_STEREO_COUNT>
0

> <PUBCHEM_BOND_UDEF_STEREO_COUNT>
0

> <PUBCHEM_CACTVS_COMPLEXITY>
348

> <PUBCHEM_CACTVS_HBOND_ACCEPTOR>
2

> <PUBCHEM_CACTVS_HBOND_DONOR>
0

> <PUBCHEM_CACTVS_ROTATABLE_BOND>
1

> <PUBCHEM_CACTVS_SUBSKEYS>
AAADccB7IAAAAAAAAAAAAAAAAAAAAWAAAAA8YIAAAAAAAFix/gAAHgAAAAAADAzBngQ+xvIIFECoA7V3VASCiCA/YiAI2CG/bNgOJvLEtbuPOSjkxBHY6YeY2fOeiAACAAACEAAQAAQAAAQgAAAAAAAAAA==

> <PUBCHEM_CACTVS_TAUTO_COUNT>
1

> <PUBCHEM_CACTVS_TPSA>
38.9

> <PUBCHEM_COMPONENT_COUNT>
1

> <PUBCHEM_COMPOUND_CANONICALIZED>
1

> <PUBCHEM_COMPOUND_CID>
2421435

> <PUBCHEM_COORDINATE_TYPE>
1
5
255

> <PUBCHEM_EXACT_MASS>
260.094963

> <PUBCHEM_HEAVY_ATOM_COUNT>
20

> <PUBCHEM_ISOTOPIC_ATOM_COUNT>
0

> <PUBCHEM_IUPAC_CAS_NAME>
2-(4-methyl-6-quinolinyl)-1,3-benzoxazole

> <PUBCHEM_IUPAC_INCHI>
InChI=1S/C17H12N2O/c1-11-8-9-18-14-7-6-12(10-13(11)14)17-19-15-4-2-3-5-16(15)20-17/h2-10H,1H3

> <PUBCHEM_IUPAC_INCHIKEY>
WBTCERKLDKQMFI-UHFFFAOYSA-N

> <PUBCHEM_IUPAC_NAME>
2-(4-methylquinolin-6-yl)-1,3-benzoxazole

> <PUBCHEM_IUPAC_OPENEYE_NAME>
2-(4-methyl-6-quinolyl)-1,3-benzoxazole

> <PUBCHEM_IUPAC_SYSTEMATIC_NAME>
2-(4-methylquinolin-6-yl)-1,3-benzoxazole

> <PUBCHEM_IUPAC_TRADITIONAL_NAME>
2-(4-methyl-6-quinolyl)-1,3-benzoxazole

> <PUBCHEM_MOLECULAR_FORMULA>
C17H12N2O

> <PUBCHEM_MOLECULAR_WEIGHT>
260.28998

> <PUBCHEM_MONOISOTOPIC_WEIGHT>
260.094963

> <PUBCHEM_OPENEYE_CAN_SMILES>
CC1=C2C=C(C=CC2=NC=C1)C3=NC4=CC=CC=C4O3

> <PUBCHEM_OPENEYE_ISO_SMILES>
CC1=C2C=C(C=CC2=NC=C1)C3=NC4=CC=CC=C4O3

> <PUBCHEM_TOTAL_CHARGE>
0

> <PUBCHEM_XLOGP3_AA>
4.1

$$$$
Written by BCL::WriteToMDL,3794832
MBcorina  10171218483D 1   1.00000     0.00000 
CORINA 3.49 0026  01.06.2011
 37 40  0  0  0  0  0  0  0  0999 V2000
   -3.9417   -6.2107    0.5086 Cl  0  0  0  1  0  1  0  0  0  0  0  0
   -0.2312    1.7499    0.0032 S   0  0  0  1  0  2  0  0  0  0  0  0
    2.8075   -0.5574    1.9008 O   0  0  0  1  0  1  0  0  0  0  0  0
   -2.3164   -4.2767    0.2066 O   0  0  0  1  0  1  0  0  0  0  0  0
   -0.1120   -4.1956   -0.0533 N   0  0  0  1  0  3  0  0  0  0  0  0
    0.9479   -0.7037    0.5162 C   0  0  0  1  0  3  0  0  0  0  0  0
   -0.1467   -0.0026    0.0006 C   0  0  0  1  0  3  0  0  0  0  0  0
    2.4353    1.3620    0.6472 C   0  0  0  1  0  3  0  0  0  0  0  0
    2.1076   -0.0012    1.0735 C   0  0  0  1  0  3  0  0  0  0  0  0
    1.4528    2.2213    0.1442 C   0  0  0  1  0  3  0  0  0  0  0  0
    0.9518   -2.1070    0.4990 C   0  0  0  1  0  3  0  0  0  0  0  0
   -0.1177   -2.7955   -0.0357 C   0  0  0  1  0  3  0  0  0  0  0  0
   -1.2198   -0.7225   -0.5405 C   0  0  0  1  0  3  0  0  0  0  0  0
   -1.2040   -2.0951   -0.5587 C   0  0  0  1  0  3  0  0  0  0  0  0
    3.7642    1.8024    0.7466 C   0  0  0  1  0  3  0  0  0  0  0  0
    1.8242    3.5085   -0.2631 C   0  0  0  1  0  3  0  0  0  0  0  0
    4.1027    3.0715    0.3438 C   0  0  0  1  0  3  0  0  0  0  0  0
    3.1307    3.9226   -0.1640 C   0  0  0  1  0  3  0  0  0  0  0  0
   -1.2623   -4.8763    0.1197 C   0  0  0  1  0  3  0  0  0  0  0  0
   -1.2423   -6.3512    0.2038 C   0  0  0  1  0  3  0  0  0  0  0  0
   -2.4330   -7.0603    0.3832 C   0  0  0  1  0  3  0  0  0  0  0  0
   -0.0345   -7.0433    0.0987 C   0  0  0  1  0  3  0  0  0  0  0  0
   -2.4061   -8.4390    0.4609 C   0  0  0  1  0  3  0  0  0  0  0  0
   -0.0228   -8.4204    0.1781 C   0  0  0  1  0  3  0  0  0  0  0  0
   -1.2045   -9.1167    0.3620 C   0  0  0  1  0  3  0  0  0  0  0  0
    1.7932   -2.6489    0.9049 H   0  0  0  1  0  1  0  0  0  0  0  0
   -2.0683   -0.1922   -0.9472 H   0  0  0  1  0  1  0  0  0  0  0  0
   -2.0381   -2.6358   -0.9811 H   0  0  0  1  0  1  0  0  0  0  0  0
    4.5225    1.1420    1.1406 H   0  0  0  1  0  1  0  0  0  0  0  0
    1.0777    4.1813   -0.6588 H   0  0  0  1  0  1  0  0  0  0  0  0
    0.7197   -4.6755   -0.1901 H   0  0  0  1  0  1  0  0  0  0  0  0
    5.1262    3.4071    0.4218 H   0  0  0  1  0  1  0  0  0  0  0  0
    3.4035    4.9174   -0.4839 H   0  0  0  1  0  1  0  0  0  0  0  0
    0.8888   -6.5017   -0.0448 H   0  0  0  1  0  1  0  0  0  0  0  0
   -3.3252   -8.9890    0.5996 H   0  0  0  1  0  1  0  0  0  0  0  0
    0.9111   -8.9565    0.0966 H   0  0  0  1  0  1  0  0  0  0  0  0
   -1.1888  -10.1948    0.4241 H   0  0  0  1  0  1  0  0  0  0  0  0
  1 21  1  0  0  0  0
  2  7  1  0  0  0  0
  2 10  1  0  0  0  0
  3  9  2  0  0  0  0
  4 19  2  0  0  0  0
  5 12  1  0  0  0  0
  5 19  1  0  0  0  0
  5 31  1  0  0  0  0
  6  7  2  0  0  0  0
  6  9  1  0  0  0  0
  6 11  1  0  0  0  0
  7 13  1  0  0  0  0
  8  9  1  0  0  0  0
  8 10  1  0  0  0  0
  8 15  2  0  0  0  0
 10 16  2  0  0  0  0
 11 12  2  0  0  0  0
 11 26  1  0  0  0  0
 12 14  1  0  0  0  0
 13 14  2  0  0  0  0
 13 27  1  0  0  0  0
 14 28  1  0  0  0  0
 15 17  1  0  0  0  0
 15 29  1  0  0  0  0
 16 18  1  0  0  0  0
 16 30  1  0  0  0  0
 17 18  2  0  0  0  0
 17 32  1  0  0  0  0
 18 33  1  0  0  0  0
 19 20  1  0  0  0  0
 20 21  1  0  0  0  0
 20 22  2  0  0  0  0
 21 23  2  0  0  0  0
 22 24  1  0  0  0  0
 22 34  1  0  0  0  0
 23 25  1  0  0  0  0
 23 35  1  0  0  0  0
 24 25  2  0  0  0  0
 24 36  1  0  0  0  0
 25 37  1  0  0  0  0
M  END
> <Activity>
3.261

> <Mapped(file=504701.csv.activities,property=Cached(PUBCHEM_COMPOUND_CID))>
3.261

> <PUBCHEM_ATOM_DEF_STEREO_COUNT>
0

> <PUBCHEM_ATOM_UDEF_STEREO_COUNT>
0

> <PUBCHEM_BONDANNOTATIONS>
10  16  8
11  12  8
12  14  8
13  14  8
15  17  8
16  18  8
17  18  8
2  10  8
2  7  8
20  21  8
20  22  8
21  23  8
22  24  8
23  25  8
24  25  8
6  11  8
6  7  8
6  9  8
7  13  8
8  10  8
8  15  8
8  9  8

> <PUBCHEM_BOND_DEF_STEREO_COUNT>
0

> <PUBCHEM_BOND_UDEF_STEREO_COUNT>
0

> <PUBCHEM_CACTVS_COMPLEXITY>
528

> <PUBCHEM_CACTVS_HBOND_ACCEPTOR>
3

> <PUBCHEM_CACTVS_HBOND_DONOR>
1

> <PUBCHEM_CACTVS_ROTATABLE_BOND>
2

> <PUBCHEM_CACTVS_SUBSKEYS>
AAADccB6MABEAAAAAAAAAAAAAAAAAAAAAAA0YMEAAAAAAACRUAAAHgYQAAAADA6B2CAwwYLAAAiIAqVSUACCAAAlDxAIiBkAZsgIIDLhl5GEIQhglADozYcciMCOAAQAQAAFAAAACACAAAoAAAAAAAAAAA==

> <PUBCHEM_CACTVS_TAUTO_COUNT>
2

> <PUBCHEM_CACTVS_TPSA>
71.5

> <PUBCHEM_COMPONENT_COUNT>
1

> <PUBCHEM_COMPOUND_CANONICALIZED>
1

> <PUBCHEM_COMPOUND_CID>
3794832

> <PUBCHEM_COORDINATE_TYPE>
1
5
255

> <PUBCHEM_EXACT_MASS>
365.027727

> <PUBCHEM_HEAVY_ATOM_COUNT>
25

> <PUBCHEM_ISOTOPIC_ATOM_COUNT>
0

> <PUBCHEM_IUPAC_CAS_NAME>
2-chloro-N-(9-oxo-2-thioxanthenyl)benzamide

> <PUBCHEM_IUPAC_INCHI>
InChI=1S/C20H12ClNO2S/c21-16-7-3-1-5-13(16)20(24)22-12-9-10-18-15(11-12)19(23)14-6-2-4-8-17(14)25-18/h1-11H,(H,22,24)

> <PUBCHEM_IUPAC_INCHIKEY>
GDNFHTMLVHWAQG-UHFFFAOYSA-N

> <PUBCHEM_IUPAC_NAME>
2-chloro-N-(9-oxothioxanthen-2-yl)benzamide

> <PUBCHEM_IUPAC_OPENEYE_NAME>
2-chloro-N-(9-oxothioxanthen-2-yl)benzamide

> <PUBCHEM_IUPAC_SYSTEMATIC_NAME>
2-chloranyl-N-(9-oxidanylidenethioxanthen-2-yl)benzamide

> <PUBCHEM_IUPAC_TRADITIONAL_NAME>
2-chloro-N-(9-ketothioxanthen-2-yl)benzamide

> <PUBCHEM_MOLECULAR_FORMULA>
C20H12ClNO2S

> <PUBCHEM_MOLECULAR_WEIGHT>
365.83278

> <PUBCHEM_MONOISOTOPIC_WEIGHT>
365.027727

> <PUBCHEM_OPENEYE_CAN_SMILES>
C1=CC=C2C(=C1)C(=O)C3=C(S2)C=CC(=C3)NC(=O)C4=CC=CC=C4Cl

> <PUBCHEM_OPENEYE_ISO_SMILES>
C1=CC=C2C(=C1)C(=O)C3=C(S2)C=CC(=C3)NC(=O)C4=CC=CC=C4Cl

> <PUBCHEM_TOTAL_CHARGE>
0

> <PUBCHEM_XLOGP3_AA>
5

$$$$
Written by BCL::WriteToMDL,1104012
MBcorina  10171218483D 1   1.00000     0.00000 
CORINA 3.49 0026  01.06.2011
 49 52  0  0  0  0  0  0  0  0999 V2000
   -0.8670    0.2406   -0.2742 O   0  0  0  1  0  2  0  0  0  0  0  0
    3.6689   -3.9994   -8.8630 O   0  0  0  1  0  2  0  0  0  0  0  0
    3.3733   -2.7519   -6.7323 O   0  0  0  1  0  1  0  0  0  0  0  0
    1.6107   -0.3837   -1.4399 N   0  0  0  1  0  3  0  0  0  0  0  0
    5.0242   -1.7708   -5.6160 N   0  0  0  1  0  3  0  0  0  0  0  0
    0.6030   -1.4299   -1.2136 C   0  0  0  1  0  4  0  0  0  0  0  0
    0.9670    0.9133   -1.6946 C   0  0  0  1  0  4  0  0  0  0  0  0
   -0.2745   -1.0365   -0.0223 C   0  0  0  1  0  4  0  0  0  0  0  0
    0.0859    1.2832   -0.4985 C   0  0  0  1  0  4  0  0  0  0  0  0
    2.4683   -0.7323   -2.4888 C   0  0  0  1  0  3  0  0  0  0  0  0
    3.4942    0.1266   -2.8617 C   0  0  0  1  0  3  0  0  0  0  0  0
    2.2975   -1.9397   -3.1535 C   0  0  0  1  0  3  0  0  0  0  0  0
    4.1658   -1.4220   -4.5654 C   0  0  0  1  0  3  0  0  0  0  0  0
    4.3405   -0.2175   -3.8968 C   0  0  0  1  0  3  0  0  0  0  0  0
    3.1439   -2.2836   -4.1886 C   0  0  0  1  0  3  0  0  0  0  0  0
    5.4857   -2.9560   -7.7052 C   0  0  0  1  0  3  0  0  0  0  0  0
    7.7121   -3.1055   -8.6113 C   0  0  0  1  0  3  0  0  0  0  0  0
    7.2075   -3.8659   -9.6979 C   0  0  0  1  0  3  0  0  0  0  0  0
    6.8346   -2.6539   -7.6150 C   0  0  0  1  0  3  0  0  0  0  0  0
    4.9936   -3.7125   -8.7903 C   0  0  0  1  0  3  0  0  0  0  0  0
    4.5581   -2.4889   -6.6569 C   0  0  0  1  0  3  0  0  0  0  0  0
    5.8350   -4.1587   -9.7661 C   0  0  0  1  0  3  0  0  0  0  0  0
    9.0875   -2.8169   -8.5518 C   0  0  0  1  0  3  0  0  0  0  0  0
    8.0933   -4.3144  -10.6926 C   0  0  0  1  0  3  0  0  0  0  0  0
    9.9140   -3.2692   -9.5339 C   0  0  0  1  0  3  0  0  0  0  0  0
    9.4182   -4.0151  -10.6015 C   0  0  0  1  0  3  0  0  0  0  0  0
    3.2324   -4.7687   -9.9853 C   0  0  0  1  0  4  0  0  0  0  0  0
    1.7313    1.6778   -1.8339 H   0  0  0  1  0  1  0  0  0  0  0  0
    0.3522    0.8445   -2.5921 H   0  0  0  1  0  1  0  0  0  0  0  0
   -0.0176   -1.5361   -2.1033 H   0  0  0  1  0  1  0  0  0  0  0  0
    1.1015   -2.3757   -1.0017 H   0  0  0  1  0  1  0  0  0  0  0  0
   -0.4377    2.2162   -0.7069 H   0  0  0  1  0  1  0  0  0  0  0  0
    0.7081    1.4045    0.3882 H   0  0  0  1  0  1  0  0  0  0  0  0
    0.3373   -0.9826    0.8783 H   0  0  0  1  0  1  0  0  0  0  0  0
   -1.0588   -1.7811    0.1137 H   0  0  0  1  0  1  0  0  0  0  0  0
    3.6296    1.0637   -2.3422 H   0  0  0  1  0  1  0  0  0  0  0  0
    1.5028   -2.6098   -2.8604 H   0  0  0  1  0  1  0  0  0  0  0  0
    5.1382    0.4503   -4.1868 H   0  0  0  1  0  1  0  0  0  0  0  0
    3.0113   -3.2227   -4.7052 H   0  0  0  1  0  1  0  0  0  0  0  0
    5.9541   -1.4955   -5.5942 H   0  0  0  1  0  1  0  0  0  0  0  0
    7.2077   -2.0744   -6.7835 H   0  0  0  1  0  1  0  0  0  0  0  0
    5.4465   -4.7374  -10.5910 H   0  0  0  1  0  1  0  0  0  0  0  0
    9.4856   -2.2390   -7.7309 H   0  0  0  1  0  1  0  0  0  0  0  0
    7.7245   -4.8945  -11.5256 H   0  0  0  1  0  1  0  0  0  0  0  0
   10.9696   -3.0458   -9.4857 H   0  0  0  1  0  1  0  0  0  0  0  0
   10.0955   -4.3616  -11.3680 H   0  0  0  1  0  1  0  0  0  0  0  0
    3.4672   -4.2340  -10.9057 H   0  0  0  1  0  1  0  0  0  0  0  0
    3.7412   -5.7326   -9.9851 H   0  0  0  1  0  1  0  0  0  0  0  0
    2.1557   -4.9261   -9.9212 H   0  0  0  1  0  1  0  0  0  0  0  0
  1  8  1  0  0  0  0
  1  9  1  0  0  0  0
  2 20  1  0  0  0  0
  2 27  1  0  0  0  0
  3 21  2  0  0  0  0
  4  6  1  0  0  0  0
  4  7  1  0  0  0  0
  4 10  1  0  0  0  0
  5 13  1  0  0  0  0
  5 21  1  0  0  0  0
  5 40  1  0  0  0  0
  6  8  1  0  0  0  0
  6 30  1  0  0  0  0
  6 31  1  0  0  0  0
  7  9  1  0  0  0  0
  7 28  1  0  0  0  0
  7 29  1  0  0  0  0
  8 34  1  0  0  0  0
  8 35  1  0  0  0  0
  9 32  1  0  0  0  0
  9 33  1  0  0  0  0
 10 11  2  0  0  0  0
 10 12  1  0  0  0  0
 11 14  1  0  0  0  0
 11 36  1  0  0  0  0
 12 15  2  0  0  0  0
 12 37  1  0  0  0  0
 13 14  2  0  0  0  0
 13 15  1  0  0  0  0
 14 38  1  0  0  0  0
 15 39  1  0  0  0  0
 16 19  2  0  0  0  0
 16 20  1  0  0  0  0
 16 21  1  0  0  0  0
 17 18  1  0  0  0  0
 17 19  1  0  0  0  0
 17 23  2  0  0  0  0
 18 22  1  0  0  0  0
 18 24  2  0  0  0  0
 19 41  1  0  0  0  0
 20 22  2  0  0  0  0
 22 42  1  0  0  0  0
 23 25  1  0  0  0  0
 23 43  1  0  0  0  0
 24 26  1  0  0  0  0
 24 44  1  0  0  0  0
 25 26  2  0  0  0  0
 25 45  1  0  0  0  0
 26 46  1  0  0  0  0
 27 47  1  0  0  0  0
 27 48  1  0  0  0  0
 27 49  1  0  0  0  0
M  END
> <Activity>
8.587

> <Mapped(file=504701.csv.activities,property=Cached(PUBCHEM_COMPOUND_CID))>
8.587

> <PUBCHEM_ATOM_DEF_STEREO_COUNT>
0

> <PUBCHEM_ATOM_UDEF_STEREO_COUNT>
0

> <PUBCHEM_BONDANNOTATIONS>
10  11  8
10  12  8
11  14  8
12  15  8
13  14  8
13  15  8
16  19  8
16  20  8
17  18  8
17  19  8
17  23  8
18  22  8
18  24  8
20  22  8
23  25  8
24  26  8
25  26  8

> <PUBCHEM_BOND_DEF_STEREO_COUNT>
0

> <PUBCHEM_BOND_UDEF_STEREO_COUNT>
0

> <PUBCHEM_CACTVS_COMPLEXITY>
486

> <PUBCHEM_CACTVS_HBOND_ACCEPTOR>
4

> <PUBCHEM_CACTVS_HBOND_DONOR>
1

> <PUBCHEM_CACTVS_ROTATABLE_BOND>
4

> <PUBCHEM_CACTVS_SUBSKEYS>
AAADceB7MAAAAAAAAAAAAAAAAAAAAAAAAAA8YMEAAAAAAADBVAAAHgAQAAAADAzhmAYyxsPABACIAiVSUACCCAAlIgAIiAEObMgOJjbEtZuHMWhm9BHY6YeYyPCO4ACDAAAYAADAAQYAADAAAAAAAAAAAA==

> <PUBCHEM_CACTVS_TAUTO_COUNT>
2

> <PUBCHEM_CACTVS_TPSA>
50.8

> <PUBCHEM_COMPONENT_COUNT>
1

> <PUBCHEM_COMPOUND_CANONICALIZED>
1

> <PUBCHEM_COMPOUND_CID>
1104012

> <PUBCHEM_COORDINATE_TYPE>
1
5
255

> <PUBCHEM_EXACT_MASS>
362.163043

> <PUBCHEM_HEAVY_ATOM_COUNT>
27

> <PUBCHEM_ISOTOPIC_ATOM_COUNT>
0

> <PUBCHEM_IUPAC_CAS_NAME>
3-methoxy-N-[4-(4-morpholinyl)phenyl]-2-naphthalenecarboxamide

> <PUBCHEM_IUPAC_INCHI>
InChI=1S/C22H22N2O3/c1-26-21-15-17-5-3-2-4-16(17)14-20(21)22(25)23-18-6-8-19(9-7-18)24-10-12-27-13-11-24/h2-9,14-15H,10-13H2,1H3,(H,23,25)

> <PUBCHEM_IUPAC_INCHIKEY>
ZZPYRWQPKUSUJH-UHFFFAOYSA-N

> <PUBCHEM_IUPAC_NAME>
3-methoxy-N-(4-morpholin-4-ylphenyl)naphthalene-2-carboxamide

> <PUBCHEM_IUPAC_OPENEYE_NAME>
3-methoxy-N-(4-morpholinophenyl)naphthalene-2-carboxamide

> <PUBCHEM_IUPAC_SYSTEMATIC_NAME>
3-methoxy-N-(4-morpholin-4-ylphenyl)naphthalene-2-carboxamide

> <PUBCHEM_IUPAC_TRADITIONAL_NAME>
3-methoxy-N-(4-morpholinophenyl)-2-naphthamide

> <PUBCHEM_MOLECULAR_FORMULA>
C22H22N2O3

> <PUBCHEM_MOLECULAR_WEIGHT>
362.42168

> <PUBCHEM_MONOISOTOPIC_WEIGHT>
362.163043

> <PUBCHEM_OPENEYE_CAN_SMILES>
COC1=CC2=CC=CC=C2C=C1C(=O)NC3=CC=C(C=C3)N4CCOCC4

> <PUBCHEM_OPENEYE_ISO_SMILES>
COC1=CC2=CC=CC=C2C=C1C(=O)NC3=CC=C(C=C3)N4CCOCC4

> <PUBCHEM_TOTAL_CHARGE>
0

> <PUBCHEM_XLOGP3_AA>
3.7

$$$$
Written by BCL::WriteToMDL,3274011
MBcorina  10171218483D 1   1.00000     0.00000 
CORINA 3.49 0026  01.06.2011
 43 47  0  0  0  0  0  0  0  0999 V2000
   -0.0224    1.7546   -0.0374 S   0  0  0  1  0  2  0  0  0  0  0  0
   -6.6927    2.6818    0.2769 O   0  0  0  1  0  2  0  0  0  0  0  0
   -5.9233   -1.2271   -0.0395 O   0  0  0  1  0  1  0  0  0  0  0  0
   -1.0261   -2.1810   -0.0007 N   0  0  0  1  0  2  0  0  0  0  0  0
   -5.1134    0.8313    0.1573 N   0  0  0  1  0  3  0  0  0  0  0  0
   -7.5146    0.7118    0.0879 N   0  0  0  1  0  2  0  0  0  0  0  0
   -8.5009    1.5365    0.1346 N   0  0  0  1  0  2  0  0  0  0  0  0
   -3.3838   -2.5323    0.0357 C   0  0  0  1  0  3  0  0  0  0  0  0
   -3.5922   -1.0829    0.0307 C   0  0  0  1  0  3  0  0  0  0  0  0
   -2.0563   -3.0291    0.0191 C   0  0  0  1  0  3  0  0  0  0  0  0
   -1.1907   -0.8724   -0.0056 C   0  0  0  1  0  3  0  0  0  0  0  0
   -2.4645   -0.2769    0.0097 C   0  0  0  1  0  3  0  0  0  0  0  0
   -4.4600   -3.4247    0.0560 C   0  0  0  1  0  3  0  0  0  0  0  0
   -1.8498   -4.4206    0.0234 C   0  0  0  1  0  3  0  0  0  0  0  0
   -4.9516   -0.5021    0.0468 C   0  0  0  1  0  3  0  0  0  0  0  0
    0.0017   -0.0041   -0.0274 C   0  0  0  1  0  3  0  0  0  0  0  0
   -4.2220   -4.7679    0.0595 C   0  0  0  1  0  3  0  0  0  0  0  0
   -2.9202   -5.2618    0.0433 C   0  0  0  1  0  3  0  0  0  0  0  0
    1.2807   -0.4361   -0.0432 C   0  0  0  1  0  3  0  0  0  0  0  0
   -6.3863    1.3752    0.1724 C   0  0  0  1  0  3  0  0  0  0  0  0
   -8.8485    3.9933    0.3372 C   0  0  0  1  0  3  0  0  0  0  0  0
    2.2265    0.5651   -0.0627 C   0  0  0  1  0  3  0  0  0  0  0  0
   -8.0408    2.7590    0.2506 C   0  0  0  1  0  3  0  0  0  0  0  0
    1.7352    1.8094   -0.0630 C   0  0  0  1  0  3  0  0  0  0  0  0
  -10.2422    3.9235    0.2971 C   0  0  0  1  0  3  0  0  0  0  0  0
   -8.2214    5.2340    0.4652 C   0  0  0  1  0  3  0  0  0  0  0  0
  -10.9903    5.0797    0.3788 C   0  0  0  1  0  3  0  0  0  0  0  0
   -8.9815    6.3824    0.5460 C   0  0  0  1  0  3  0  0  0  0  0  0
  -10.3623    6.3066    0.5003 C   0  0  0  1  0  3  0  0  0  0  0  0
   -2.5634    0.7985    0.0048 H   0  0  0  1  0  1  0  0  0  0  0  0
   -5.4739   -3.0527    0.0691 H   0  0  0  1  0  1  0  0  0  0  0  0
   -0.8464   -4.8199    0.0106 H   0  0  0  1  0  1  0  0  0  0  0  0
   -5.0536   -5.4569    0.0752 H   0  0  0  1  0  1  0  0  0  0  0  0
   -2.7569   -6.3294    0.0461 H   0  0  0  1  0  1  0  0  0  0  0  0
   -4.3379    1.4099    0.2262 H   0  0  0  1  0  1  0  0  0  0  0  0
    1.5416   -1.4841   -0.0405 H   0  0  0  1  0  1  0  0  0  0  0  0
    3.2868    0.3605   -0.0767 H   0  0  0  1  0  1  0  0  0  0  0  0
    2.3286    2.7117   -0.0771 H   0  0  0  1  0  1  0  0  0  0  0  0
  -10.7337    2.9665    0.2019 H   0  0  0  1  0  1  0  0  0  0  0  0
   -7.1437    5.2945    0.5013 H   0  0  0  1  0  1  0  0  0  0  0  0
  -12.0686    5.0271    0.3476 H   0  0  0  1  0  1  0  0  0  0  0  0
   -8.4976    7.3429    0.6450 H   0  0  0  1  0  1  0  0  0  0  0  0
  -10.9526    7.2087    0.5640 H   0  0  0  1  0  1  0  0  0  0  0  0
  1 16  1  0  0  0  0
  1 24  1  0  0  0  0
  2 20  1  0  0  0  0
  2 23  1  0  0  0  0
  3 15  2  0  0  0  0
  4 10  1  0  0  0  0
  4 11  2  0  0  0  0
  5 15  1  0  0  0  0
  5 20  1  0  0  0  0
  5 35  1  0  0  0  0
  6  7  1  0  0  0  0
  6 20  2  0  0  0  0
  7 23  2  0  0  0  0
  8  9  1  0  0  0  0
  8 10  1  0  0  0  0
  8 13  2  0  0  0  0
  9 12  2  0  0  0  0
  9 15  1  0  0  0  0
 10 14  2  0  0  0  0
 11 12  1  0  0  0  0
 11 16  1  0  0  0  0
 12 30  1  0  0  0  0
 13 17  1  0  0  0  0
 13 31  1  0  0  0  0
 14 18  1  0  0  0  0
 14 32  1  0  0  0  0
 16 19  2  0  0  0  0
 17 18  2  0  0  0  0
 17 33  1  0  0  0  0
 18 34  1  0  0  0  0
 19 22  1  0  0  0  0
 19 36  1  0  0  0  0
 21 23  1  0  0  0  0
 21 25  2  0  0  0  0
 21 26  1  0  0  0  0
 22 24  2  0  0  0  0
 22 37  1  0  0  0  0
 24 38  1  0  0  0  0
 25 27  1  0  0  0  0
 25 39  1  0  0  0  0
 26 28  2  0  0  0  0
 26 40  1  0  0  0  0
 27 29  2  0  0  0  0
 27 41  1  0  0  0  0
 28 29  1  0  0  0  0
 28 42  1  0  0  0  0
 29 43  1  0  0  0  0
M  END
> <Activity>
6.153

> <Mapped(file=504701.csv.activities,property=Cached(PUBCHEM_COMPOUND_CID))>
6.153

> <PUBCHEM_ATOM_DEF_STEREO_COUNT>
0

> <PUBCHEM_ATOM_UDEF_STEREO_COUNT>
0

> <PUBCHEM_BONDANNOTATIONS>
1  16  8
1  24  8
10  14  8
11  12  8
13  17  8
14  18  8
16  19  8
17  18  8
19  22  8
2  20  8
2  23  8
21  25  8
21  26  8
22  24  8
25  27  8
26  28  8
27  29  8
28  29  8
4  10  8
4  11  8
6  20  8
6  7  8
7  23  8
8  10  8
8  13  8
8  9  8
9  12  8

> <PUBCHEM_BOND_DEF_STEREO_COUNT>
0

> <PUBCHEM_BOND_UDEF_STEREO_COUNT>
0

> <PUBCHEM_CACTVS_COMPLEXITY>
573

> <PUBCHEM_CACTVS_HBOND_ACCEPTOR>
4

> <PUBCHEM_CACTVS_HBOND_DONOR>
1

> <PUBCHEM_CACTVS_ROTATABLE_BOND>
4

> <PUBCHEM_CACTVS_SUBSKEYS>
AAADccB7sABAAAAAAAAAAAAAAAAAAWJAAAA8YIAAAAAAAACx/gAAHgQYAAAADAiF3gCx0fLIFEiuAyVydACTgKItCjBfmDkwbNmIJvLgvZmMMQh0zSPo6YecyOCOgAAAAAACAAAAAAAAAAQAAAAAAAAAAA==

> <PUBCHEM_CACTVS_TAUTO_COUNT>
3

> <PUBCHEM_CACTVS_TPSA>
109

> <PUBCHEM_COMPONENT_COUNT>
1

> <PUBCHEM_COMPOUND_CANONICALIZED>
1

> <PUBCHEM_COMPOUND_CID>
3274011

> <PUBCHEM_COORDINATE_TYPE>
1
5
255

> <PUBCHEM_EXACT_MASS>
398.083747

> <PUBCHEM_HEAVY_ATOM_COUNT>
29

> <PUBCHEM_ISOTOPIC_ATOM_COUNT>
0

> <PUBCHEM_IUPAC_CAS_NAME>
N-(5-phenyl-1,3,4-oxadiazol-2-yl)-2-thiophen-2-yl-4-quinolinecarboxamide

> <PUBCHEM_IUPAC_INCHI>
InChI=1S/C22H14N4O2S/c27-20(24-22-26-25-21(28-22)14-7-2-1-3-8-14)16-13-18(19-11-6-12-29-19)23-17-10-5-4-9-15(16)17/h1-13H,(H,24,26,27)

> <PUBCHEM_IUPAC_INCHIKEY>
LTRWOPHBDJBIBD-UHFFFAOYSA-N

> <PUBCHEM_IUPAC_NAME>
N-(5-phenyl-1,3,4-oxadiazol-2-yl)-2-thiophen-2-ylquinoline-4-carboxamide

> <PUBCHEM_IUPAC_OPENEYE_NAME>
N-(5-phenyl-1,3,4-oxadiazol-2-yl)-2-(2-thienyl)quinoline-4-carboxamide

> <PUBCHEM_IUPAC_SYSTEMATIC_NAME>
N-(5-phenyl-1,3,4-oxadiazol-2-yl)-2-thiophen-2-yl-quinoline-4-carboxamide

> <PUBCHEM_IUPAC_TRADITIONAL_NAME>
N-(5-phenyl-1,3,4-oxadiazol-2-yl)-2-(2-thienyl)cinchoninamide

> <PUBCHEM_MOLECULAR_FORMULA>
C22H14N4O2S

> <PUBCHEM_MOLECULAR_WEIGHT>
398.43716

> <PUBCHEM_MONOISOTOPIC_WEIGHT>
398.083747

> <PUBCHEM_OPENEYE_CAN_SMILES>
C1=CC=C(C=C1)C2=NN=C(O2)NC(=O)C3=CC(=NC4=CC=CC=C43)C5=CC=CS5

> <PUBCHEM_OPENEYE_ISO_SMILES>
C1=CC=C(C=C1)C2=NN=C(O2)NC(=O)C3=CC(=NC4=CC=CC=C43)C5=CC=CS5

> <PUBCHEM_TOTAL_CHARGE>
0

> <PUBCHEM_XLOGP3_AA>
4.2

$$$$
Written by BCL::WriteToMDL,2961359
MBcorina  10171218483D 1   1.00000     0.00000 
CORINA 3.49 0026  01.06.2011
 42 44  0  0  0  0  0  0  0  0999 V2000
    6.0613    0.4536   -3.2941 Br  0  0  0  1  0  1  0  0  0  0  0  0
    1.1768    2.3038   -0.1378 S   0  0  0  1  0  4  0  0  0  0  0  0
    3.3694    0.5341   -1.4909 S   0  0  0  1  0  2  0  0  0  0  0  0
   -1.1233   10.4061    0.3493 S   0  0  0  1  0  2  0  0  0  0  0  0
    1.1821    3.6572    0.2951 O   0  0  0  1  0  1  0  0  0  0  0  0
    1.1182    1.2017    0.7573 O   0  0  0  1  0  1  0  0  0  0  0  0
   -1.5878    3.9359    0.2053 O   0  0  0  1  0  1  0  0  0  0  0  0
   -0.1160    2.1449   -1.1603 N   0  0  0  1  0  3  0  0  0  0  0  0
   -1.4431    5.5467   -1.3134 N   0  0  0  1  0  3  0  0  0  0  0  0
   -0.7670    3.2395   -1.8949 C   0  0  0  1  0  4  0  0  0  0  0  0
   -1.9340    2.6237   -2.6953 C   0  0  0  1  0  4  0  0  0  0  0  0
   -2.2270    1.3084   -1.9262 C   0  0  0  1  0  4  0  0  0  0  0  0
   -0.8008    0.8816   -1.4897 C   0  0  0  1  0  4  0  0  0  0  0  0
   -1.2954    4.2646   -0.9249 C   0  0  0  1  0  3  0  0  0  0  0  0
    2.6348    2.0842   -1.1025 C   0  0  0  1  0  3  0  0  0  0  0  0
    3.3496    3.0681   -1.6499 C   0  0  0  1  0  3  0  0  0  0  0  0
   -1.8501    6.5153   -0.3893 C   0  0  0  1  0  3  0  0  0  0  0  0
    4.4588    2.6540   -2.3676 C   0  0  0  1  0  3  0  0  0  0  0  0
    4.6443    1.3326   -2.4024 C   0  0  0  1  0  3  0  0  0  0  0  0
   -1.3496    7.8062   -0.4709 C   0  0  0  1  0  3  0  0  0  0  0  0
   -2.7605    6.1863    0.6077 C   0  0  0  1  0  3  0  0  0  0  0  0
   -1.7564    8.7647    0.4480 C   0  0  0  1  0  3  0  0  0  0  0  0
   -3.1636    7.1418    1.5205 C   0  0  0  1  0  3  0  0  0  0  0  0
   -2.6633    8.4274    1.4459 C   0  0  0  1  0  3  0  0  0  0  0  0
   -1.9421   11.2432    1.7347 C   0  0  0  1  0  4  0  0  0  0  0  0
   -0.0544    3.7038   -2.5766 H   0  0  0  1  0  1  0  0  0  0  0  0
   -2.8027    3.2819   -2.6786 H   0  0  0  1  0  1  0  0  0  0  0  0
   -1.6293    2.4115   -3.7200 H   0  0  0  1  0  1  0  0  0  0  0  0
   -2.8643    1.4949   -1.0618 H   0  0  0  1  0  1  0  0  0  0  0  0
   -2.6721    0.5620   -2.5841 H   0  0  0  1  0  1  0  0  0  0  0  0
   -0.2877    0.3737   -2.3063 H   0  0  0  1  0  1  0  0  0  0  0  0
   -0.8502    0.2369   -0.6122 H   0  0  0  1  0  1  0  0  0  0  0  0
   -1.2673    5.7980   -2.2337 H   0  0  0  1  0  1  0  0  0  0  0  0
    3.0831    4.1091   -1.5420 H   0  0  0  1  0  1  0  0  0  0  0  0
    5.1233    3.3472   -2.8618 H   0  0  0  1  0  1  0  0  0  0  0  0
   -0.6447    8.0654   -1.2471 H   0  0  0  1  0  1  0  0  0  0  0  0
   -3.1539    5.1823    0.6688 H   0  0  0  1  0  1  0  0  0  0  0  0
   -3.8715    6.8832    2.2940 H   0  0  0  1  0  1  0  0  0  0  0  0
   -2.9801    9.1720    2.1612 H   0  0  0  1  0  1  0  0  0  0  0  0
   -3.0226   11.2019    1.5968 H   0  0  0  1  0  1  0  0  0  0  0  0
   -1.6757   10.7468    2.6679 H   0  0  0  1  0  1  0  0  0  0  0  0
   -1.6201   12.2839    1.7720 H   0  0  0  1  0  1  0  0  0  0  0  0
  1 19  1  0  0  0  0
  2  5  2  0  0  0  0
  2  6  2  0  0  0  0
  2  8  1  0  0  0  0
  2 15  1  0  0  0  0
  3 15  1  0  0  0  0
  3 19  1  0  0  0  0
  4 22  1  0  0  0  0
  4 25  1  0  0  0  0
  7 14  2  0  0  0  0
  8 10  1  0  0  0  0
  8 13  1  0  0  0  0
  9 14  1  0  0  0  0
  9 17  1  0  0  0  0
  9 33  1  0  0  0  0
 10 11  1  0  0  0  0
 10 14  1  0  0  0  0
 10 26  1  0  0  0  0
 11 12  1  0  0  0  0
 11 27  1  0  0  0  0
 11 28  1  0  0  0  0
 12 13  1  0  0  0  0
 12 29  1  0  0  0  0
 12 30  1  0  0  0  0
 13 31  1  0  0  0  0
 13 32  1  0  0  0  0
 15 16  2  0  0  0  0
 16 18  1  0  0  0  0
 16 34  1  0  0  0  0
 17 20  2  0  0  0  0
 17 21  1  0  0  0  0
 18 19  2  0  0  0  0
 18 35  1  0  0  0  0
 20 22  1  0  0  0  0
 20 36  1  0  0  0  0
 21 23  2  0  0  0  0
 21 37  1  0  0  0  0
 22 24  2  0  0  0  0
 23 24  1  0  0  0  0
 23 38  1  0  0  0  0
 24 39  1  0  0  0  0
 25 40  1  0  0  0  0
 25 41  1  0  0  0  0
 25 42  1  0  0  0  0
M  END
> <Activity>
0.09334

> <Mapped(file=504701.csv.activities,property=Cached(PUBCHEM_COMPOUND_CID))>
0.09334

> <PUBCHEM_ATOM_DEF_STEREO_COUNT>
0

> <PUBCHEM_ATOM_UDEF_STEREO_COUNT>
1

> <PUBCHEM_BONDANNOTATIONS>
10  14  3
15  16  8
16  18  8
17  20  8
17  21  8
18  19  8
20  22  8
21  23  8
22  24  8
23  24  8
3  15  8
3  19  8

> <PUBCHEM_BOND_DEF_STEREO_COUNT>
0

> <PUBCHEM_BOND_UDEF_STEREO_COUNT>
0

> <PUBCHEM_CACTVS_COMPLEXITY>
584

> <PUBCHEM_CACTVS_HBOND_ACCEPTOR>
6

> <PUBCHEM_CACTVS_HBOND_DONOR>
1

> <PUBCHEM_CACTVS_ROTATABLE_BOND>
5

> <PUBCHEM_CACTVS_SUBSKEYS>
AAADceB7MABgEAAAAAAAAAAAAAAAAWJAAAAwAAAAAAAAAAABwAAAHgRQQAABKCjB0ASywYLAAAqMACVSUHDDAZAhChRIiBmIZKgIYDLgkbGUIAxglADoyhcYAQAAAAAAACAAAAAAAAAAQAAAAAAAAAAAAA==

> <PUBCHEM_CACTVS_TAUTO_COUNT>
3

> <PUBCHEM_CACTVS_TPSA>
128

> <PUBCHEM_COMPONENT_COUNT>
1

> <PUBCHEM_COMPOUND_CANONICALIZED>
1

> <PUBCHEM_COMPOUND_CID>
2961359

> <PUBCHEM_COORDINATE_TYPE>
1
5
255

> <PUBCHEM_EXACT_MASS>
459.958468

> <PUBCHEM_HEAVY_ATOM_COUNT>
25

> <PUBCHEM_ISOTOPIC_ATOM_COUNT>
0

> <PUBCHEM_IUPAC_CAS_NAME>
1-[(5-bromo-2-thiophenyl)sulfonyl]-N-[3-(methylthio)phenyl]-2-pyrrolidinecarboxamide

> <PUBCHEM_IUPAC_INCHI>
InChI=1S/C16H17BrN2O3S3/c1-23-12-5-2-4-11(10-12)18-16(20)13-6-3-9-19(13)25(21,22)15-8-7-14(17)24-15/h2,4-5,7-8,10,13H,3,6,9H2,1H3,(H,18,20)

> <PUBCHEM_IUPAC_INCHIKEY>
GGCRLIFVACLEJF-UHFFFAOYSA-N

> <PUBCHEM_IUPAC_NAME>
1-(5-bromothiophen-2-yl)sulfonyl-N-(3-methylsulfanylphenyl)pyrrolidine-2-carboxamide

> <PUBCHEM_IUPAC_OPENEYE_NAME>
1-[(5-bromo-2-thienyl)sulfonyl]-N-(3-methylsulfanylphenyl)pyrrolidine-2-carboxamide

> <PUBCHEM_IUPAC_SYSTEMATIC_NAME>
1-(5-bromanylthiophen-2-yl)sulfonyl-N-(3-methylsulfanylphenyl)pyrrolidine-2-carboxamide

> <PUBCHEM_IUPAC_TRADITIONAL_NAME>
1-[(5-bromo-2-thienyl)sulfonyl]-N-[3-(methylthio)phenyl]pyrrolidine-2-carboxamide

> <PUBCHEM_MOLECULAR_FORMULA>
C16H17BrN2O3S3

> <PUBCHEM_MOLECULAR_WEIGHT>
461.41678

> <PUBCHEM_MONOISOTOPIC_WEIGHT>
459.958468

> <PUBCHEM_OPENEYE_CAN_SMILES>
CSC1=CC=CC(=C1)NC(=O)C2CCCN2S(=O)(=O)C3=CC=C(S3)Br

> <PUBCHEM_OPENEYE_ISO_SMILES>
CSC1=CC=CC(=C1)NC(=O)C2CCCN2S(=O)(=O)C3=CC=C(S3)Br

> <PUBCHEM_TOTAL_CHARGE>
0

> <PUBCHEM_XLOGP3_AA>
4

$$$$
Written by BCL::WriteToMDL,655414
MBcorina  10171218483D 1   1.00000     0.00000 
CORINA 3.49 0026  01.06.2011
 59 63  0  0  0  0  0  0  0  0999 V2000
    1.0360    4.0883   -0.4268 S   0  0  0  1  0  4  0  0  0  0  0  0
   -3.9606    3.9744    5.8028 O   0  0  0  1  0  2  0  0  0  0  0  0
   -3.7755    6.8230   11.7830 O   0  0  0  1  0  1  0  0  0  0  0  0
   -1.5403    4.5593   10.1436 O   0  0  0  1  0  2  0  0  0  0  0  0
    1.1310    2.7067   -0.7454 O   0  0  0  1  0  1  0  0  0  0  0  0
    2.1684    4.9037   -0.1586 O   0  0  0  1  0  1  0  0  0  0  0  0
   -4.1556    5.8578    9.8178 N   0  0  0  1  0  3  0  0  0  0  0  0
   -2.5406    5.4827    5.3110 N   0  0  0  1  0  2  0  0  0  0  0  0
   -3.4140    3.6000    4.7868 N   0  0  0  1  0  2  0  0  0  0  0  0
    0.2318    4.8041   -1.6851 N   0  0  0  1  0  3  0  0  0  0  0  0
   -3.8690    5.9500    7.3963 C   0  0  0  1  0  4  0  0  0  0  0  0
   -5.3547    6.3025    7.2950 C   0  0  0  1  0  4  0  0  0  0  0  0
   -3.6304    5.1194    8.6613 C   0  0  0  1  0  4  0  0  0  0  0  0
   -5.7657    7.1407    8.5078 C   0  0  0  1  0  4  0  0  0  0  0  0
   -5.5487    6.3236    9.7853 C   0  0  0  1  0  4  0  0  0  0  0  0
   -3.4577    5.1521    6.1858 C   0  0  0  1  0  3  0  0  0  0  0  0
   -3.3759    6.0985   10.8905 C   0  0  0  1  0  3  0  0  0  0  0  0
   -2.0459    5.4873   10.9823 C   0  0  0  1  0  3  0  0  0  0  0  0
   -2.5181    4.4748    4.4100 C   0  0  0  1  0  3  0  0  0  0  0  0
   -1.6411    4.3794    3.2164 C   0  0  0  1  0  3  0  0  0  0  0  0
   -1.1026    5.7574   11.9318 C   0  0  0  1  0  3  0  0  0  0  0  0
   -1.7283    3.2753    2.3711 C   0  0  0  1  0  3  0  0  0  0  0  0
   -0.7316    5.3964    2.9340 C   0  0  0  1  0  3  0  0  0  0  0  0
   -0.0055    4.2018    0.9898 C   0  0  0  1  0  3  0  0  0  0  0  0
    0.0082    4.9513   11.6378 C   0  0  0  1  0  3  0  0  0  0  0  0
   -0.9107    3.1919    1.2623 C   0  0  0  1  0  3  0  0  0  0  0  0
    0.0816    5.3027    1.8227 C   0  0  0  1  0  3  0  0  0  0  0  0
   -0.3018    4.2336   10.5356 C   0  0  0  1  0  3  0  0  0  0  0  0
   -0.0591    6.2394   -1.6467 C   0  0  0  1  0  4  0  0  0  0  0  0
   -0.4502    6.7098   -3.0240 C   0  0  0  1  0  3  0  0  0  0  0  0
   -1.7769    6.6864   -3.4115 C   0  0  0  1  0  3  0  0  0  0  0  0
    0.5171    7.1699   -3.8977 C   0  0  0  1  0  3  0  0  0  0  0  0
   -2.1356    7.1178   -4.6749 C   0  0  0  1  0  3  0  0  0  0  0  0
    0.1584    7.6013   -5.1611 C   0  0  0  1  0  3  0  0  0  0  0  0
   -1.1676    7.5730   -5.5505 C   0  0  0  1  0  3  0  0  0  0  0  0
   -3.2802    6.8659    7.4461 H   0  0  0  1  0  1  0  0  0  0  0  0
   -5.5313    6.8727    6.3830 H   0  0  0  1  0  1  0  0  0  0  0  0
   -5.9445    5.3862    7.2702 H   0  0  0  1  0  1  0  0  0  0  0  0
   -2.5615    4.9497    8.7908 H   0  0  0  1  0  1  0  0  0  0  0  0
   -4.1463    4.1633    8.5733 H   0  0  0  1  0  1  0  0  0  0  0  0
   -5.1591    8.0455    8.5471 H   0  0  0  1  0  1  0  0  0  0  0  0
   -6.8182    7.4111    8.4233 H   0  0  0  1  0  1  0  0  0  0  0  0
   -6.2210    5.4657    9.7890 H   0  0  0  1  0  1  0  0  0  0  0  0
   -5.7455    6.9485   10.6565 H   0  0  0  1  0  1  0  0  0  0  0  0
   -1.1936    6.4559   12.7505 H   0  0  0  1  0  1  0  0  0  0  0  0
   -2.4342    2.4859    2.5833 H   0  0  0  1  0  1  0  0  0  0  0  0
   -0.6630    6.2566    3.5835 H   0  0  0  1  0  1  0  0  0  0  0  0
    0.9363    4.9120   12.1888 H   0  0  0  1  0  1  0  0  0  0  0  0
   -0.9775    2.3365    0.6064 H   0  0  0  1  0  1  0  0  0  0  0  0
    0.7871    6.0903    1.6031 H   0  0  0  1  0  1  0  0  0  0  0  0
    0.3428    3.5153   10.0509 H   0  0  0  1  0  1  0  0  0  0  0  0
   -0.0466    4.2731   -2.4476 H   0  0  0  1  0  1  0  0  0  0  0  0
   -0.8789    6.4255   -0.9528 H   0  0  0  1  0  1  0  0  0  0  0  0
    0.8270    6.7810   -1.3158 H   0  0  0  1  0  1  0  0  0  0  0  0
   -2.5331    6.3307   -2.7274 H   0  0  0  1  0  1  0  0  0  0  0  0
    1.5531    7.1927   -3.5932 H   0  0  0  1  0  1  0  0  0  0  0  0
   -3.1720    7.0988   -4.9780 H   0  0  0  1  0  1  0  0  0  0  0  0
    0.9141    7.9612   -5.8436 H   0  0  0  1  0  1  0  0  0  0  0  0
   -1.4478    7.9097   -6.5377 H   0  0  0  1  0  1  0  0  0  0  0  0
  1  5  2  0  0  0  0
  1  6  2  0  0  0  0
  1 10  1  0  0  0  0
  1 24  1  0  0  0  0
  2  9  1  0  0  0  0
  2 16  1  0  0  0  0
  3 17  2  0  0  0  0
  4 18  1  0  0  0  0
  4 28  1  0  0  0  0
  7 13  1  0  0  0  0
  7 15  1  0  0  0  0
  7 17  1  0  0  0  0
  8 16  2  0  0  0  0
  8 19  1  0  0  0  0
  9 19  2  0  0  0  0
 10 29  1  0  0  0  0
 10 52  1  0  0  0  0
 11 12  1  0  0  0  0
 11 13  1  0  0  0  0
 11 16  1  0  0  0  0
 11 36  1  0  0  0  0
 12 14  1  0  0  0  0
 12 37  1  0  0  0  0
 12 38  1  0  0  0  0
 13 39  1  0  0  0  0
 13 40  1  0  0  0  0
 14 15  1  0  0  0  0
 14 41  1  0  0  0  0
 14 42  1  0  0  0  0
 15 43  1  0  0  0  0
 15 44  1  0  0  0  0
 17 18  1  0  0  0  0
 18 21  2  0  0  0  0
 19 20  1  0  0  0  0
 20 22  2  0  0  0  0
 20 23  1  0  0  0  0
 21 25  1  0  0  0  0
 21 45  1  0  0  0  0
 22 26  1  0  0  0  0
 22 46  1  0  0  0  0
 23 27  2  0  0  0  0
 23 47  1  0  0  0  0
 24 26  2  0  0  0  0
 24 27  1  0  0  0  0
 25 28  2  0  0  0  0
 25 48  1  0  0  0  0
 26 49  1  0  0  0  0
 27 50  1  0  0  0  0
 28 51  1  0  0  0  0
 29 30  1  0  0  0  0
 29 53  1  0  0  0  0
 29 54  1  0  0  0  0
 30 31  2  0  0  0  0
 30 32  1  0  0  0  0
 31 33  1  0  0  0  0
 31 55  1  0  0  0  0
 32 34  2  0  0  0  0
 32 56  1  0  0  0  0
 33 35  2  0  0  0  0
 33 57  1  0  0  0  0
 34 35  1  0  0  0  0
 34 58  1  0  0  0  0
 35 59  1  0  0  0  0
M  END
> <Activity>
8.738

> <Mapped(file=504701.csv.activities,property=Cached(PUBCHEM_COMPOUND_CID))>
8.738

> <PUBCHEM_ATOM_DEF_STEREO_COUNT>
0

> <PUBCHEM_ATOM_UDEF_STEREO_COUNT>
1

> <PUBCHEM_BONDANNOTATIONS>
11  16  3
18  21  8
2  16  8
2  9  8
20  22  8
20  23  8
21  25  8
22  26  8
23  27  8
24  26  8
24  27  8
25  28  8
30  31  8
30  32  8
31  33  8
32  34  8
33  35  8
34  35  8
4  18  8
4  28  8
8  16  8
8  19  8
9  19  8

> <PUBCHEM_BOND_DEF_STEREO_COUNT>
0

> <PUBCHEM_BOND_UDEF_STEREO_COUNT>
0

> <PUBCHEM_CACTVS_COMPLEXITY>
807

> <PUBCHEM_CACTVS_HBOND_ACCEPTOR>
6

> <PUBCHEM_CACTVS_HBOND_DONOR>
1

> <PUBCHEM_CACTVS_ROTATABLE_BOND>
7

> <PUBCHEM_CACTVS_SUBSKEYS>
AAADceB7uABAAAAAAAAAAAAAAAAAAWJAAAA8YIAAAAAAAAAB9AAAHgQUQAAADQTh2wYxFYdYFEKpAqtytnLCiBkkIKApiLn+DNiOLrqE/T+HOSjmxxOYqYeYlwIOEAAAAAAAAAAgAAAAAAAAAAAAAAAAAA==

> <PUBCHEM_CACTVS_TAUTO_COUNT>
1

> <PUBCHEM_CACTVS_TPSA>
127

> <PUBCHEM_COMPONENT_COUNT>
1

> <PUBCHEM_COMPOUND_CANONICALIZED>
1

> <PUBCHEM_COMPOUND_CID>
655414

> <PUBCHEM_COORDINATE_TYPE>
1
5
255

> <PUBCHEM_EXACT_MASS>
492.146741

> <PUBCHEM_HEAVY_ATOM_COUNT>
35

> <PUBCHEM_ISOTOPIC_ATOM_COUNT>
0

> <PUBCHEM_IUPAC_CAS_NAME>
4-[5-[1-[2-furanyl(oxo)methyl]-3-piperidinyl]-1,2,4-oxadiazol-3-yl]-N-(phenylmethyl)benzenesulfonamide

> <PUBCHEM_IUPAC_INCHI>
InChI=1S/C25H24N4O5S/c30-25(22-9-5-15-33-22)29-14-4-8-20(17-29)24-27-23(28-34-24)19-10-12-21(13-11-19)35(31,32)26-16-18-6-2-1-3-7-18/h1-3,5-7,9-13,15,20,26H,4,8,14,16-17H2

> <PUBCHEM_IUPAC_INCHIKEY>
ZPIQTKFMNQCPAX-UHFFFAOYSA-N

> <PUBCHEM_IUPAC_NAME>
N-benzyl-4-[5-[1-(furan-2-carbonyl)piperidin-3-yl]-1,2,4-oxadiazol-3-yl]benzenesulfonamide

> <PUBCHEM_IUPAC_OPENEYE_NAME>
N-benzyl-4-[5-[1-(furan-2-carbonyl)-3-piperidyl]-1,2,4-oxadiazol-3-yl]benzenesulfonamide

> <PUBCHEM_IUPAC_SYSTEMATIC_NAME>
4-[5-[1-(furan-2-ylcarbonyl)piperidin-3-yl]-1,2,4-oxadiazol-3-yl]-N-(phenylmethyl)benzenesulfonamide

> <PUBCHEM_IUPAC_TRADITIONAL_NAME>
N-benzyl-4-[5-[1-(2-furoyl)-3-piperidyl]-1,2,4-oxadiazol-3-yl]benzenesulfonamide

> <PUBCHEM_MOLECULAR_FORMULA>
C25H24N4O5S

> <PUBCHEM_MOLECULAR_WEIGHT>
492.54686

> <PUBCHEM_MONOISOTOPIC_WEIGHT>
492.146741

> <PUBCHEM_OPENEYE_CAN_SMILES>
C1CC(CN(C1)C(=O)C2=CC=CO2)C3=NC(=NO3)C4=CC=C(C=C4)S(=O)(=O)NCC5=CC=CC=C5

> <PUBCHEM_OPENEYE_ISO_SMILES>
C1CC(CN(C1)C(=O)C2=CC=CO2)C3=NC(=NO3)C4=CC=C(C=C4)S(=O)(=O)NCC5=CC=CC=C5

> <PUBCHEM_TOTAL_CHARGE>
0

> <PUBCHEM_XLOGP3_AA>
3.4

$$$$
Written by BCL::WriteToMDL,723043
MBcorina  10171218483D 1   1.00000     0.00000 
CORINA 3.49 0026  01.06.2011
 29 32  0  0  0  0  0  0  0  0999 V2000
   -0.0162    1.3424    0.0094 O   0  0  0  1  0  2  0  0  0  0  0  0
   -2.3948   -0.3105    0.0233 N   0  0  0  1  0  2  0  0  0  0  0  0
    1.2367   -0.4360   -0.0121 N   0  0  0  1  0  2  0  0  0  0  0  0
   -1.1983   -0.8682    0.0088 C   0  0  0  1  0  3  0  0  0  0  0  0
   -3.4110   -2.4671    0.0214 C   0  0  0  1  0  3  0  0  0  0  0  0
    0.0021   -0.0041    0.0020 C   0  0  0  1  0  3  0  0  0  0  0  0
   -3.5043   -1.0517    0.0299 C   0  0  0  1  0  3  0  0  0  0  0  0
    1.2621    1.7795   -0.0004 C   0  0  0  1  0  3  0  0  0  0  0  0
    2.0731    0.6318   -0.0143 C   0  0  0  1  0  3  0  0  0  0  0  0
   -1.0397   -2.2639    0.0003 C   0  0  0  1  0  3  0  0  0  0  0  0
   -2.1382   -3.0713    0.0065 C   0  0  0  1  0  3  0  0  0  0  0  0
   -4.5831   -3.2387    0.0289 C   0  0  0  1  0  3  0  0  0  0  0  0
   -4.7763   -0.4506    0.0448 C   0  0  0  1  0  3  0  0  0  0  0  0
    1.8469    3.0363    0.0007 C   0  0  0  1  0  3  0  0  0  0  0  0
    3.4638    0.7687   -0.0269 C   0  0  0  1  0  3  0  0  0  0  0  0
   -5.7968   -2.6205    0.0434 C   0  0  0  1  0  3  0  0  0  0  0  0
   -5.8916   -1.2305    0.0508 C   0  0  0  1  0  3  0  0  0  0  0  0
    3.2213    3.1553   -0.0118 C   0  0  0  1  0  3  0  0  0  0  0  0
    4.0259    2.0253   -0.0255 C   0  0  0  1  0  3  0  0  0  0  0  0
   -0.0500   -2.6963   -0.0115 H   0  0  0  1  0  1  0  0  0  0  0  0
   -2.0355   -4.1464   -0.0003 H   0  0  0  1  0  1  0  0  0  0  0  0
   -4.5232   -4.3170    0.0225 H   0  0  0  1  0  1  0  0  0  0  0  0
   -4.8673    0.6255    0.0517 H   0  0  0  1  0  1  0  0  0  0  0  0
    1.2276    3.9211    0.0110 H   0  0  0  1  0  1  0  0  0  0  0  0
    4.0949   -0.1077   -0.0373 H   0  0  0  1  0  1  0  0  0  0  0  0
   -6.6978   -3.2159    0.0488 H   0  0  0  1  0  1  0  0  0  0  0  0
   -6.8657   -0.7644    0.0622 H   0  0  0  1  0  1  0  0  0  0  0  0
    3.6744    4.1356   -0.0112 H   0  0  0  1  0  1  0  0  0  0  0  0
    5.1006    2.1321   -0.0352 H   0  0  0  1  0  1  0  0  0  0  0  0
  1  6  1  0  0  0  0
  1  8  1  0  0  0  0
  2  4  2  0  0  0  0
  2  7  1  0  0  0  0
  3  6  2  0  0  0  0
  3  9  1  0  0  0  0
  4  6  1  0  0  0  0
  4 10  1  0  0  0  0
  5  7  1  0  0  0  0
  5 11  1  0  0  0  0
  5 12  2  0  0  0  0
  7 13  2  0  0  0  0
  8  9  1  0  0  0  0
  8 14  2  0  0  0  0
  9 15  2  0  0  0  0
 10 11  2  0  0  0  0
 10 20  1  0  0  0  0
 11 21  1  0  0  0  0
 12 16  1  0  0  0  0
 12 22  1  0  0  0  0
 13 17  1  0  0  0  0
 13 23  1  0  0  0  0
 14 18  1  0  0  0  0
 14 24  1  0  0  0  0
 15 19  1  0  0  0  0
 15 25  1  0  0  0  0
 16 17  2  0  0  0  0
 16 26  1  0  0  0  0
 17 27  1  0  0  0  0
 18 19  2  0  0  0  0
 18 28  1  0  0  0  0
 19 29  1  0  0  0  0
M  END
> <Activity>
0.954

> <Mapped(file=504701.csv.activities,property=Cached(PUBCHEM_COMPOUND_CID))>
0.954

> <PUBCHEM_ATOM_DEF_STEREO_COUNT>
0

> <PUBCHEM_ATOM_UDEF_STEREO_COUNT>
0

> <PUBCHEM_BONDANNOTATIONS>
1  6  8
1  8  8
10  11  8
12  16  8
13  17  8
14  18  8
15  19  8
16  17  8
18  19  8
2  4  8
2  7  8
3  6  8
3  9  8
4  10  8
5  11  8
5  12  8
5  7  8
7  13  8
8  14  8
8  9  8
9  15  8

> <PUBCHEM_BOND_DEF_STEREO_COUNT>
0

> <PUBCHEM_BOND_UDEF_STEREO_COUNT>
0

> <PUBCHEM_CACTVS_COMPLEXITY>
322

> <PUBCHEM_CACTVS_HBOND_ACCEPTOR>
2

> <PUBCHEM_CACTVS_HBOND_DONOR>
0

> <PUBCHEM_CACTVS_ROTATABLE_BOND>
1

> <PUBCHEM_CACTVS_SUBSKEYS>
AAADccB7IAAAAAAAAAAAAAAAAAAAAWAAAAA8YIAAAAAAAFix/gAAHgAAAAAADAyBngAwxvIIFECoA6VyVASCiCAvYiAImCG3bNgOZvLEtbufOSjkxBHY6YeYyLCOAAAAAAACEAAAAAAAAAQgAAAAAAAAAA==

> <PUBCHEM_CACTVS_TAUTO_COUNT>
1

> <PUBCHEM_CACTVS_TPSA>
38.9

> <PUBCHEM_COMPONENT_COUNT>
1

> <PUBCHEM_COMPOUND_CANONICALIZED>
1

> <PUBCHEM_COMPOUND_CID>
723043

> <PUBCHEM_COORDINATE_TYPE>
1
5
255

> <PUBCHEM_EXACT_MASS>
246.079313

> <PUBCHEM_HEAVY_ATOM_COUNT>
19

> <PUBCHEM_ISOTOPIC_ATOM_COUNT>
0

> <PUBCHEM_IUPAC_CAS_NAME>
2-(2-quinolinyl)-1,3-benzoxazole

> <PUBCHEM_IUPAC_INCHI>
InChI=1S/C16H10N2O/c1-2-6-12-11(5-1)9-10-14(17-12)16-18-13-7-3-4-8-15(13)19-16/h1-10H

> <PUBCHEM_IUPAC_INCHIKEY>
LEYACHSFIUEDPZ-UHFFFAOYSA-N

> <PUBCHEM_IUPAC_NAME>
2-quinolin-2-yl-1,3-benzoxazole

> <PUBCHEM_IUPAC_OPENEYE_NAME>
2-(2-quinolyl)-1,3-benzoxazole

> <PUBCHEM_IUPAC_SYSTEMATIC_NAME>
2-quinolin-2-yl-1,3-benzoxazole

> <PUBCHEM_IUPAC_TRADITIONAL_NAME>
2-(2-quinolyl)-1,3-benzoxazole

> <PUBCHEM_MOLECULAR_FORMULA>
C16H10N2O

> <PUBCHEM_MOLECULAR_WEIGHT>
246.2634

> <PUBCHEM_MONOISOTOPIC_WEIGHT>
246.079313

> <PUBCHEM_OPENEYE_CAN_SMILES>
C1=CC=C2C(=C1)C=CC(=N2)C3=NC4=CC=CC=C4O3

> <PUBCHEM_OPENEYE_ISO_SMILES>
C1=CC=C2C(=C1)C=CC(=N2)C3=NC4=CC=CC=C4O3

> <PUBCHEM_TOTAL_CHARGE>
0

> <PUBCHEM_XLOGP3_AA>
3.7

$$$$
Written by BCL::WriteToMDL,2320415
MBcorina  10171218483D 1   1.00000     0.00000 
CORINA 3.49 0026  01.06.2011
 63 65  0  0  0  0  0  0  0  0999 V2000
   -0.1266    1.6258   -0.1771 P   0  0  0  1  0  4  0  0  0  0  0  0
   -2.2454   -2.0476   -5.6896 F   0  0  0  1  0  1  0  0  0  0  0  0
   -3.7119   -2.3376   -3.9621 F   0  0  0  1  0  1  0  0  0  0  0  0
   -2.1902   -3.9689   -4.4548 F   0  0  0  1  0  1  0  0  0  0  0  0
    0.3675    0.6071    0.7761 O   0  0  0  1  0  1  0  0  0  0  0  0
   -4.9061    2.6894    1.0370 O   0  0  0  1  0  1  0  0  0  0  0  0
   -4.4811   -0.7778    0.2469 O   0  0  0  1  0  2  0  0  0  0  0  0
    1.1678    2.2473   -1.0549 N   0  0  0  1  0  3  0  0  0  0  0  0
   -1.2031    0.9364   -1.2045 N   0  0  0  1  0  3  0  0  0  0  0  0
   -2.9514    1.6438    0.8820 N   0  0  0  1  0  3  0  0  0  0  0  0
   -2.7933    6.0519    2.8376 N   0  0  0  1  0  3  0  0  0  0  0  0
   -0.9368    2.9668    0.7371 C   0  0  0  1  0  3  0  0  0  0  0  0
    0.7709    3.4514   -1.7970 C   0  0  0  1  0  4  0  0  0  0  0  0
    2.3141    2.5230   -0.1786 C   0  0  0  1  0  4  0  0  0  0  0  0
   -2.2521    2.8221    1.1606 C   0  0  0  1  0  3  0  0  0  0  0  0
   -0.2433    4.1288    1.0165 C   0  0  0  1  0  3  0  0  0  0  0  0
   -0.8575   -0.2221   -1.9040 C   0  0  0  1  0  3  0  0  0  0  0  0
   -2.8712    3.8485    1.8599 C   0  0  0  1  0  3  0  0  0  0  0  0
   -2.1739    5.0164    2.1339 C   0  0  0  1  0  3  0  0  0  0  0  0
   -0.1247    3.0541   -2.9721 C   0  0  0  1  0  4  0  0  0  0  0  0
    3.0266    1.2113    0.1570 C   0  0  0  1  0  4  0  0  0  0  0  0
   -0.8563    5.1523    1.7128 C   0  0  0  1  0  3  0  0  0  0  0  0
   -1.7682   -0.8074   -2.7748 C   0  0  0  1  0  3  0  0  0  0  0  0
    0.3994   -0.7884   -1.7350 C   0  0  0  1  0  3  0  0  0  0  0  0
   -1.4232   -1.9525   -3.4651 C   0  0  0  1  0  3  0  0  0  0  0  0
    0.7381   -1.9338   -2.4286 C   0  0  0  1  0  3  0  0  0  0  0  0
   -4.2979    1.6570    0.8238 C   0  0  0  1  0  3  0  0  0  0  0  0
   -4.1800    5.9052    3.2867 C   0  0  0  1  0  4  0  0  0  0  0  0
   -2.0562    7.2846    3.1264 C   0  0  0  1  0  4  0  0  0  0  0  0
   -0.1727   -2.5169   -3.2901 C   0  0  0  1  0  3  0  0  0  0  0  0
   -2.4104   -2.5880   -4.4098 C   0  0  0  1  0  4  0  0  0  0  0  0
   -5.0299    0.4276    0.5037 C   0  0  0  1  0  3  0  0  0  0  0  0
   -6.3867    0.3022    0.4127 C   0  0  0  1  0  3  0  0  0  0  0  0
   -6.6471   -1.0382    0.0876 C   0  0  0  1  0  3  0  0  0  0  0  0
   -5.4531   -1.6643   -0.0044 C   0  0  0  1  0  3  0  0  0  0  0  0
    3.0073    3.1932   -0.6871 H   0  0  0  1  0  1  0  0  0  0  0  0
    1.9640    2.9919    0.7410 H   0  0  0  1  0  1  0  0  0  0  0  0
    0.2245    4.1228   -1.1346 H   0  0  0  1  0  1  0  0  0  0  0  0
    1.6607    3.9564   -2.1728 H   0  0  0  1  0  1  0  0  0  0  0  0
   -2.0798    1.3332   -1.3264 H   0  0  0  1  0  1  0  0  0  0  0  0
    0.7805    4.2370    0.6900 H   0  0  0  1  0  1  0  0  0  0  0  0
   -3.8937    3.7387    2.1899 H   0  0  0  1  0  1  0  0  0  0  0  0
    0.4217    2.3827   -3.6346 H   0  0  0  1  0  1  0  0  0  0  0  0
   -1.0145    2.5491   -2.5963 H   0  0  0  1  0  1  0  0  0  0  0  0
    2.3335    0.5411    0.6654 H   0  0  0  1  0  1  0  0  0  0  0  0
    3.3767    0.7424   -0.7626 H   0  0  0  1  0  1  0  0  0  0  0  0
    3.8772    1.4158    0.8072 H   0  0  0  1  0  1  0  0  0  0  0  0
   -0.4192    3.9475   -3.5228 H   0  0  0  1  0  1  0  0  0  0  0  0
   -0.3113    6.0590    1.9301 H   0  0  0  1  0  1  0  0  0  0  0  0
   -2.4675    0.8169    0.7306 H   0  0  0  1  0  1  0  0  0  0  0  0
   -2.7451   -0.3675   -2.9113 H   0  0  0  1  0  1  0  0  0  0  0  0
    1.1113   -0.3334   -1.0622 H   0  0  0  1  0  1  0  0  0  0  0  0
    1.7154   -2.3745   -2.2979 H   0  0  0  1  0  1  0  0  0  0  0  0
   -4.1943    5.4643    4.2835 H   0  0  0  1  0  1  0  0  0  0  0  0
   -4.6580    6.8844    3.3156 H   0  0  0  1  0  1  0  0  0  0  0  0
   -4.7193    5.2578    2.5953 H   0  0  0  1  0  1  0  0  0  0  0  0
   -2.2030    7.9948    2.3127 H   0  0  0  1  0  1  0  0  0  0  0  0
   -2.4229    7.7175    4.0571 H   0  0  0  1  0  1  0  0  0  0  0  0
   -0.9944    7.0586    3.2243 H   0  0  0  1  0  1  0  0  0  0  0  0
    0.0943   -3.4129   -3.8307 H   0  0  0  1  0  1  0  0  0  0  0  0
   -7.1178    1.0829    0.5622 H   0  0  0  1  0  1  0  0  0  0  0  0
   -7.6190   -1.4852   -0.0610 H   0  0  0  1  0  1  0  0  0  0  0  0
   -5.3068   -2.7078   -0.2416 H   0  0  0  1  0  1  0  0  0  0  0  0
  1  5  2  0  0  0  0
  1  8  1  0  0  0  0
  1  9  1  0  0  0  0
  1 12  1  0  0  0  0
  2 31  1  0  0  0  0
  3 31  1  0  0  0  0
  4 31  1  0  0  0  0
  6 27  2  0  0  0  0
  7 32  1  0  0  0  0
  7 35  1  0  0  0  0
  8 13  1  0  0  0  0
  8 14  1  0  0  0  0
  9 17  1  0  0  0  0
  9 40  1  0  0  0  0
 10 15  1  0  0  0  0
 10 27  1  0  0  0  0
 10 50  1  0  0  0  0
 11 19  1  0  0  0  0
 11 28  1  0  0  0  0
 11 29  1  0  0  0  0
 12 15  2  0  0  0  0
 12 16  1  0  0  0  0
 13 20  1  0  0  0  0
 13 38  1  0  0  0  0
 13 39  1  0  0  0  0
 14 21  1  0  0  0  0
 14 36  1  0  0  0  0
 14 37  1  0  0  0  0
 15 18  1  0  0  0  0
 16 22  2  0  0  0  0
 16 41  1  0  0  0  0
 17 23  1  0  0  0  0
 17 24  2  0  0  0  0
 18 19  2  0  0  0  0
 18 42  1  0  0  0  0
 19 22  1  0  0  0  0
 20 43  1  0  0  0  0
 20 44  1  0  0  0  0
 20 48  1  0  0  0  0
 21 45  1  0  0  0  0
 21 46  1  0  0  0  0
 21 47  1  0  0  0  0
 22 49  1  0  0  0  0
 23 25  2  0  0  0  0
 23 51  1  0  0  0  0
 24 26  1  0  0  0  0
 24 52  1  0  0  0  0
 25 30  1  0  0  0  0
 25 31  1  0  0  0  0
 26 30  2  0  0  0  0
 26 53  1  0  0  0  0
 27 32  1  0  0  0  0
 28 54  1  0  0  0  0
 28 55  1  0  0  0  0
 28 56  1  0  0  0  0
 29 57  1  0  0  0  0
 29 58  1  0  0  0  0
 29 59  1  0  0  0  0
 30 60  1  0  0  0  0
 32 33  2  0  0  0  0
 33 34  1  0  0  0  0
 33 61  1  0  0  0  0
 34 35  2  0  0  0  0
 34 62  1  0  0  0  0
 35 63  1  0  0  0  0
M  END
> <Activity>
0.18385

> <Mapped(file=504701.csv.activities,property=Cached(PUBCHEM_COMPOUND_CID))>
0.18385

> <PUBCHEM_ATOM_DEF_STEREO_COUNT>
0

> <PUBCHEM_ATOM_UDEF_STEREO_COUNT>
1

> <PUBCHEM_BONDANNOTATIONS>
1  9  3
12  15  8
12  16  8
15  18  8
16  22  8
17  23  8
17  24  8
18  19  8
19  22  8
23  25  8
24  26  8
25  30  8
26  30  8
32  33  8
33  34  8
34  35  8
7  32  8
7  35  8

> <PUBCHEM_BOND_DEF_STEREO_COUNT>
0

> <PUBCHEM_BOND_UDEF_STEREO_COUNT>
0

> <PUBCHEM_CACTVS_COMPLEXITY>
750

> <PUBCHEM_CACTVS_HBOND_ACCEPTOR>
9

> <PUBCHEM_CACTVS_HBOND_DONOR>
2

> <PUBCHEM_CACTVS_ROTATABLE_BOND>
9

> <PUBCHEM_CACTVS_SUBSKEYS>
AAADceB7sYIAAAAAAAAAAAAAAAAAASAAAAAwYAAAAAAAAAAB0AAAHwgQgCAADAzhmBYyxIPABECIQq1S0AKCCAAlIgAIiAHObMgOJjLE9f+HOSjk1BHY6YeYlwIOAAAAQAQAAAAAAACACAAAAAAAAAAAAA==

> <PUBCHEM_CACTVS_TAUTO_COUNT>
4

> <PUBCHEM_CACTVS_TPSA>
77.8

> <PUBCHEM_COMPONENT_COUNT>
1

> <PUBCHEM_COMPOUND_CANONICALIZED>
1

> <PUBCHEM_COMPOUND_CID>
2320415

> <PUBCHEM_COORDINATE_TYPE>
1
5
255

> <PUBCHEM_EXACT_MASS>
508.185112

> <PUBCHEM_HEAVY_ATOM_COUNT>
35

> <PUBCHEM_ISOTOPIC_ATOM_COUNT>
0

> <PUBCHEM_IUPAC_CAS_NAME>
N-[2-[diethylamino-[3-(trifluoromethyl)anilino]phosphoryl]-5-(dimethylamino)phenyl]-2-furancarboxamide

> <PUBCHEM_IUPAC_INCHI>
InChI=1S/C24H28F3N4O3P/c1-5-31(6-2)35(33,29-18-10-7-9-17(15-18)24(25,26)27)22-13-12-19(30(3)4)16-20(22)28-23(32)21-11-8-14-34-21/h7-16H,5-6H2,1-4H3,(H,28,32)(H,29,33)

> <PUBCHEM_IUPAC_INCHIKEY>
OCQYRCACOUHQPZ-UHFFFAOYSA-N

> <PUBCHEM_IUPAC_NAME>
N-[2-[diethylamino-[3-(trifluoromethyl)anilino]phosphoryl]-5-(dimethylamino)phenyl]furan-2-carboxamide

> <PUBCHEM_IUPAC_OPENEYE_NAME>
N-[2-[diethylamino-[3-(trifluoromethyl)anilino]phosphoryl]-5-(dimethylamino)phenyl]furan-2-carboxamide

> <PUBCHEM_IUPAC_SYSTEMATIC_NAME>
N-[2-[diethylamino-[[3-(trifluoromethyl)phenyl]amino]phosphoryl]-5-(dimethylamino)phenyl]furan-2-carboxamide

> <PUBCHEM_IUPAC_TRADITIONAL_NAME>
N-[2-[diethylamino-[3-(trifluoromethyl)anilino]phosphoryl]-5-(dimethylamino)phenyl]-2-furamide

> <PUBCHEM_MOLECULAR_FORMULA>
C24H28F3N4O3P

> <PUBCHEM_MOLECULAR_WEIGHT>
508.473092

> <PUBCHEM_MONOISOTOPIC_WEIGHT>
508.185112

> <PUBCHEM_OPENEYE_CAN_SMILES>
CCN(CC)P(=O)(C1=C(C=C(C=C1)N(C)C)NC(=O)C2=CC=CO2)NC3=CC=CC(=C3)C(F)(F)F

> <PUBCHEM_OPENEYE_ISO_SMILES>
CCN(CC)P(=O)(C1=C(C=C(C=C1)N(C)C)NC(=O)C2=CC=CO2)NC3=CC=CC(=C3)C(F)(F)F

> <PUBCHEM_TOTAL_CHARGE>
0

> <PUBCHEM_XLOGP3_AA>
5.6

$$$$
Written by BCL::WriteToMDL,2999024
MBcorina  10171218483D 1   1.00000     0.00000 
CORINA 3.49 0026  01.06.2011
 50 53  0  0  0  0  0  0  0  0999 V2000
   -0.1760    0.3021    0.1608 S   0  0  0  1  0  1  0  0  0  0  0  0
   -0.0247    2.1576    0.0784 P   0  0  0  1  0  4  0  0  0  0  0  0
    3.5735    3.7655   -0.1985 N   0  0  0  1  0  3  0  0  0  0  0  0
   -2.1002    2.6847    1.9304 N   0  0  0  1  0  3  0  0  0  0  0  0
   -0.5692    2.3562   -2.6928 N   0  0  0  1  0  3  0  0  0  0  0  0
    3.9109    2.4769    0.2351 N   0  0  0  1  0  2  0  0  0  0  0  0
   -0.2510    3.7143    2.3772 N   0  0  0  1  0  2  0  0  0  0  0  0
   -1.7807    3.6665   -1.4703 N   0  0  0  1  0  2  0  0  0  0  0  0
    1.7290    2.6204    0.0456 C   0  0  0  1  0  3  0  0  0  0  0  0
    2.2271    3.8281   -0.3071 C   0  0  0  1  0  3  0  0  0  0  0  0
   -0.8385    2.7645   -1.4250 C   0  0  0  1  0  3  0  0  0  0  0  0
   -0.8173    2.8942    1.5344 C   0  0  0  1  0  3  0  0  0  0  0  0
    2.8054    1.7917    0.3810 C   0  0  0  1  0  3  0  0  0  0  0  0
    1.4253    5.0275   -0.7427 C   0  0  0  1  0  4  0  0  0  0  0  0
    2.7084    0.3570    0.8316 C   0  0  0  1  0  4  0  0  0  0  0  0
    4.4722    4.8075   -0.4664 C   0  0  0  1  0  3  0  0  0  0  0  0
   -1.4009    3.0591   -3.5264 C   0  0  0  1  0  3  0  0  0  0  0  0
   -2.2951    3.4239    3.0690 C   0  0  0  1  0  3  0  0  0  0  0  0
   -1.1339    4.0548    3.3278 C   0  0  0  1  0  3  0  0  0  0  0  0
   -2.1440    3.8664   -2.7459 C   0  0  0  1  0  3  0  0  0  0  0  0
    0.3788    1.4055   -3.0748 C   0  0  0  1  0  3  0  0  0  0  0  0
   -3.0432    1.8750    1.2951 C   0  0  0  1  0  3  0  0  0  0  0  0
    5.6246    4.9452    0.2954 C   0  0  0  1  0  3  0  0  0  0  0  0
    4.2144    5.7004   -1.4978 C   0  0  0  1  0  3  0  0  0  0  0  0
    6.5082    5.9729    0.0291 C   0  0  0  1  0  3  0  0  0  0  0  0
    5.1017    6.7261   -1.7594 C   0  0  0  1  0  3  0  0  0  0  0  0
    6.2456    6.8644   -0.9949 C   0  0  0  1  0  3  0  0  0  0  0  0
    0.6047    1.1768   -4.3532 C   0  0  0  1  0  3  0  0  0  0  0  0
   -4.2251    1.6828    1.8462 C   0  0  0  1  0  3  0  0  0  0  0  0
    1.2245    4.9614   -1.8120 H   0  0  0  1  0  1  0  0  0  0  0  0
    0.4822    5.0519   -0.1968 H   0  0  0  1  0  1  0  0  0  0  0  0
    1.9893    5.9367   -0.5345 H   0  0  0  1  0  1  0  0  0  0  0  0
    2.5009    0.3252    1.9011 H   0  0  0  1  0  1  0  0  0  0  0  0
    1.9035   -0.1403    0.2903 H   0  0  0  1  0  1  0  0  0  0  0  0
    3.6509   -0.1519    0.6291 H   0  0  0  1  0  1  0  0  0  0  0  0
   -1.4504    2.9802   -4.6024 H   0  0  0  1  0  1  0  0  0  0  0  0
   -3.2051    3.4878    3.6471 H   0  0  0  1  0  1  0  0  0  0  0  0
   -2.9020    4.5556   -3.0879 H   0  0  0  1  0  1  0  0  0  0  0  0
   -0.9459    4.7199    4.1576 H   0  0  0  1  0  1  0  0  0  0  0  0
   -2.8044    1.4059    0.3520 H   0  0  0  1  0  1  0  0  0  0  0  0
    0.9272    0.8574   -2.3230 H   0  0  0  1  0  1  0  0  0  0  0  0
    5.8299    4.2497    1.0958 H   0  0  0  1  0  1  0  0  0  0  0  0
    3.3211    5.5929   -2.0953 H   0  0  0  1  0  1  0  0  0  0  0  0
    7.4048    6.0806    0.6214 H   0  0  0  1  0  1  0  0  0  0  0  0
    4.9019    7.4208   -2.5618 H   0  0  0  1  0  1  0  0  0  0  0  0
    6.9376    7.6676   -1.2008 H   0  0  0  1  0  1  0  0  0  0  0  0
   -4.9547    1.0563    1.3547 H   0  0  0  1  0  1  0  0  0  0  0  0
   -4.4639    2.1518    2.7893 H   0  0  0  1  0  1  0  0  0  0  0  0
    0.0564    1.7250   -5.1050 H   0  0  0  1  0  1  0  0  0  0  0  0
    1.3382    0.4413   -4.6488 H   0  0  0  1  0  1  0  0  0  0  0  0
  1  2  2  0  0  0  0
  2  9  1  0  0  0  0
  2 11  1  0  0  0  0
  2 12  1  0  0  0  0
  3  6  1  0  0  0  0
  3 10  1  0  0  0  0
  3 16  1  0  0  0  0
  4 12  1  0  0  0  0
  4 18  1  0  0  0  0
  4 22  1  0  0  0  0
  5 11  1  0  0  0  0
  5 17  1  0  0  0  0
  5 21  1  0  0  0  0
  6 13  2  0  0  0  0
  7 12  2  0  0  0  0
  7 19  1  0  0  0  0
  8 11  2  0  0  0  0
  8 20  1  0  0  0  0
  9 10  2  0  0  0  0
  9 13  1  0  0  0  0
 10 14  1  0  0  0  0
 13 15  1  0  0  0  0
 14 30  1  0  0  0  0
 14 31  1  0  0  0  0
 14 32  1  0  0  0  0
 15 33  1  0  0  0  0
 15 34  1  0  0  0  0
 15 35  1  0  0  0  0
 16 23  2  0  0  0  0
 16 24  1  0  0  0  0
 17 20  2  0  0  0  0
 17 36  1  0  0  0  0
 18 19  2  0  0  0  0
 18 37  1  0  0  0  0
 19 39  1  0  0  0  0
 20 38  1  0  0  0  0
 21 28  2  0  0  0  0
 21 41  1  0  0  0  0
 22 29  2  0  0  0  0
 22 40  1  0  0  0  0
 23 25  1  0  0  0  0
 23 42  1  0  0  0  0
 24 26  2  0  0  0  0
 24 43  1  0  0  0  0
 25 27  2  0  0  0  0
 25 44  1  0  0  0  0
 26 27  1  0  0  0  0
 26 45  1  0  0  0  0
 27 46  1  0  0  0  0
 28 49  1  0  0  0  0
 28 50  1  0  0  0  0
 29 47  1  0  0  0  0
 29 48  1  0  0  0  0
M  END
> <Activity>
0.57067

> <Mapped(file=504701.csv.activities,property=Cached(PUBCHEM_COMPOUND_CID))>
0.57067

> <PUBCHEM_ATOM_DEF_STEREO_COUNT>
0

> <PUBCHEM_ATOM_UDEF_STEREO_COUNT>
0

> <PUBCHEM_BONDANNOTATIONS>
16  23  8
16  24  8
17  20  8
18  19  8
23  25  8
24  26  8
25  27  8
26  27  8
3  10  8
3  6  8
4  12  8
4  18  8
5  11  8
5  17  8
6  13  8
7  12  8
7  19  8
8  11  8
8  20  8
9  10  8
9  13  8

> <PUBCHEM_BOND_DEF_STEREO_COUNT>
0

> <PUBCHEM_BOND_UDEF_STEREO_COUNT>
0

> <PUBCHEM_CACTVS_COMPLEXITY>
623

> <PUBCHEM_CACTVS_HBOND_ACCEPTOR>
2

> <PUBCHEM_CACTVS_HBOND_DONOR>
0

> <PUBCHEM_CACTVS_ROTATABLE_BOND>
6

> <PUBCHEM_CACTVS_SUBSKEYS>
AAADceB7gAJAAAAAAAAAAAAAAAAAAWLFgAAwAAAAAAAAAAAB/AAAHAgIAAAACAjBFgQ/0JcMECCiATRnZACShC0xEqAZ2CA4dJiIaGLA2dGUpAhoiALIyCcQAAAAAAAAAAAAAAAAAAAAAAAAAAAAAAAAAA==

> <PUBCHEM_CACTVS_TAUTO_COUNT>
1

> <PUBCHEM_CACTVS_TPSA>
85.6

> <PUBCHEM_COMPONENT_COUNT>
1

> <PUBCHEM_COMPOUND_CANONICALIZED>
1

> <PUBCHEM_COMPOUND_CID>
2999024

> <PUBCHEM_COORDINATE_TYPE>
1
5
255

> <PUBCHEM_EXACT_MASS>
420.128602

> <PUBCHEM_HEAVY_ATOM_COUNT>
29

> <PUBCHEM_ISOTOPIC_ATOM_COUNT>
0

> <PUBCHEM_IUPAC_CAS_NAME>
(3,5-dimethyl-1-phenyl-4-pyrazolyl)-bis(1-ethenyl-2-imidazolyl)-sulfanylidenephosphorane

> <PUBCHEM_IUPAC_INCHI>
InChI=1S/C21H21N6PS/c1-5-25-14-12-22-20(25)28(29,21-23-13-15-26(21)6-2)19-16(3)24-27(17(19)4)18-10-8-7-9-11-18/h5-15H,1-2H2,3-4H3

> <PUBCHEM_IUPAC_INCHIKEY>
OWJYZVYHLGHHMK-UHFFFAOYSA-N

> <PUBCHEM_IUPAC_NAME>
(3,5-dimethyl-1-phenylpyrazol-4-yl)-bis(1-ethenylimidazol-2-yl)-sulfanylidene-$l^{5}-phosphane

> <PUBCHEM_IUPAC_OPENEYE_NAME>
(3,5-dimethyl-1-phenyl-pyrazol-4-yl)-thioxo-bis(1-vinylimidazol-2-yl)-$l^{5}-phosphane

> <PUBCHEM_IUPAC_SYSTEMATIC_NAME>
(3,5-dimethyl-1-phenyl-pyrazol-4-yl)-bis(1-ethenylimidazol-2-yl)-sulfanylidene-$l^{5}-phosphane

> <PUBCHEM_IUPAC_TRADITIONAL_NAME>
(3,5-dimethyl-1-phenyl-pyrazol-4-yl)-thioxo-bis(1-vinylimidazol-2-yl)phosphorane

> <PUBCHEM_MOLECULAR_FORMULA>
C21H21N6PS

> <PUBCHEM_MOLECULAR_WEIGHT>
420.470402

> <PUBCHEM_MONOISOTOPIC_WEIGHT>
420.128602

> <PUBCHEM_OPENEYE_CAN_SMILES>
CC1=C(C(=NN1C2=CC=CC=C2)C)P(=S)(C3=NC=CN3C=C)C4=NC=CN4C=C

> <PUBCHEM_OPENEYE_ISO_SMILES>
CC1=C(C(=NN1C2=CC=CC=C2)C)P(=S)(C3=NC=CN3C=C)C4=NC=CN4C=C

> <PUBCHEM_TOTAL_CHARGE>
0

> <PUBCHEM_XLOGP3_AA>
4.6

$$$$
Written by BCL::WriteToMDL,952835
MBcorina  10171218483D 1   1.00000     0.00000 
CORINA 3.49 0026  01.06.2011
 46 48  0  0  0  0  0  0  0  0999 V2000
    0.0123    1.2686    0.3566 O   0  0  0  1  0  2  0  0  0  0  0  0
   -1.3408   -1.9728    1.0379 O   0  0  0  1  0  1  0  0  0  0  0  0
   -7.1178   -3.2935   -0.2240 N   0  0  0  1  0  3  0  0  0  0  0  0
   -2.4184   -0.3157    0.0231 N   0  0  0  1  0  3  0  0  0  0  0  0
   -5.9372   -2.5454   -0.1619 C   0  0  0  1  0  3  0  0  0  0  0  0
   -7.0555   -4.7484   -0.3837 C   0  0  0  1  0  4  0  0  0  0  0  0
   -8.4163   -2.6219   -0.1294 C   0  0  0  1  0  4  0  0  0  0  0  0
   -4.8310   -0.4280    0.0507 C   0  0  0  1  0  3  0  0  0  0  0  0
   -5.9962   -1.1663   -0.0106 C   0  0  0  1  0  3  0  0  0  0  0  0
   -3.6002   -1.0646   -0.0391 C   0  0  0  1  0  3  0  0  0  0  0  0
   -4.7058   -3.1828   -0.2460 C   0  0  0  1  0  3  0  0  0  0  0  0
   -3.5410   -2.4447   -0.1847 C   0  0  0  1  0  3  0  0  0  0  0  0
   -8.8920   -2.2318   -1.5303 C   0  0  0  1  0  4  0  0  0  0  0  0
   -7.0102   -5.4112    0.9945 C   0  0  0  1  0  4  0  0  0  0  0  0
   -4.8950    1.0687    0.2144 C   0  0  0  1  0  4  0  0  0  0  0  0
   -0.1177   -0.0072    0.7768 C   0  0  0  1  0  3  0  0  0  0  0  0
    1.9541    0.7198    1.2900 C   0  0  0  1  0  3  0  0  0  0  0  0
   -1.3262   -0.8290    0.6232 C   0  0  0  1  0  3  0  0  0  0  0  0
    1.2392    1.7456    0.6434 C   0  0  0  1  0  3  0  0  0  0  0  0
    1.0371   -0.4172    1.3626 C   0  0  0  1  0  3  0  0  0  0  0  0
    3.2694    0.9378    1.7058 C   0  0  0  1  0  3  0  0  0  0  0  0
    1.8591    2.9705    0.4269 C   0  0  0  1  0  3  0  0  0  0  0  0
    3.8583    2.1505    1.4821 C   0  0  0  1  0  3  0  0  0  0  0  0
    3.1580    3.1655    0.8450 C   0  0  0  1  0  3  0  0  0  0  0  0
   -7.9375   -5.0928   -0.9237 H   0  0  0  1  0  1  0  0  0  0  0  0
   -6.1594   -5.0144   -0.9444 H   0  0  0  1  0  1  0  0  0  0  0  0
   -9.1417   -3.2961    0.3259 H   0  0  0  1  0  1  0  0  0  0  0  0
   -8.3182   -1.7260    0.4836 H   0  0  0  1  0  1  0  0  0  0  0  0
   -6.9535   -0.6711    0.0589 H   0  0  0  1  0  1  0  0  0  0  0  0
   -4.6598   -4.2559   -0.3589 H   0  0  0  1  0  1  0  0  0  0  0  0
   -2.5837   -2.9397   -0.2549 H   0  0  0  1  0  1  0  0  0  0  0  0
   -8.9901   -3.1277   -2.1433 H   0  0  0  1  0  1  0  0  0  0  0  0
   -6.1282   -5.0669    1.5345 H   0  0  0  1  0  1  0  0  0  0  0  0
   -7.9063   -5.1453    1.5552 H   0  0  0  1  0  1  0  0  0  0  0  0
   -6.9639   -6.4938    0.8757 H   0  0  0  1  0  1  0  0  0  0  0  0
   -9.8582   -1.7321   -1.4599 H   0  0  0  1  0  1  0  0  0  0  0  0
   -8.1666   -1.5576   -1.9857 H   0  0  0  1  0  1  0  0  0  0  0  0
   -2.3859    0.5723   -0.3658 H   0  0  0  1  0  1  0  0  0  0  0  0
   -4.8938    1.3185    1.2754 H   0  0  0  1  0  1  0  0  0  0  0  0
   -4.0297    1.5242   -0.2671 H   0  0  0  1  0  1  0  0  0  0  0  0
   -5.8078    1.4459   -0.2467 H   0  0  0  1  0  1  0  0  0  0  0  0
    1.2376   -1.3866    1.7943 H   0  0  0  1  0  1  0  0  0  0  0  0
    3.8188    0.1514    2.2020 H   0  0  0  1  0  1  0  0  0  0  0  0
    1.3244    3.7677   -0.0681 H   0  0  0  1  0  1  0  0  0  0  0  0
    4.8754    2.3203    1.8032 H   0  0  0  1  0  1  0  0  0  0  0  0
    3.6364    4.1187    0.6746 H   0  0  0  1  0  1  0  0  0  0  0  0
  1 16  1  0  0  0  0
  1 19  1  0  0  0  0
  2 18  2  0  0  0  0
  3  5  1  0  0  0  0
  3  6  1  0  0  0  0
  3  7  1  0  0  0  0
  4 10  1  0  0  0  0
  4 18  1  0  0  0  0
  4 38  1  0  0  0  0
  5  9  2  0  0  0  0
  5 11  1  0  0  0  0
  6 14  1  0  0  0  0
  6 25  1  0  0  0  0
  6 26  1  0  0  0  0
  7 13  1  0  0  0  0
  7 27  1  0  0  0  0
  7 28  1  0  0  0  0
  8  9  1  0  0  0  0
  8 10  2  0  0  0  0
  8 15  1  0  0  0  0
  9 29  1  0  0  0  0
 10 12  1  0  0  0  0
 11 12  2  0  0  0  0
 11 30  1  0  0  0  0
 12 31  1  0  0  0  0
 13 32  1  0  0  0  0
 13 36  1  0  0  0  0
 13 37  1  0  0  0  0
 14 33  1  0  0  0  0
 14 34  1  0  0  0  0
 14 35  1  0  0  0  0
 15 39  1  0  0  0  0
 15 40  1  0  0  0  0
 15 41  1  0  0  0  0
 16 18  1  0  0  0  0
 16 20  2  0  0  0  0
 17 19  1  0  0  0  0
 17 20  1  0  0  0  0
 17 21  2  0  0  0  0
 19 22  2  0  0  0  0
 20 42  1  0  0  0  0
 21 23  1  0  0  0  0
 21 43  1  0  0  0  0
 22 24  1  0  0  0  0
 22 44  1  0  0  0  0
 23 24  2  0  0  0  0
 23 45  1  0  0  0  0
 24 46  1  0  0  0  0
M  END
> <Activity>
2.434

> <Mapped(file=504701.csv.activities,property=Cached(PUBCHEM_COMPOUND_CID))>
2.434

> <PUBCHEM_ATOM_DEF_STEREO_COUNT>
0

> <PUBCHEM_ATOM_UDEF_STEREO_COUNT>
0

> <PUBCHEM_BONDANNOTATIONS>
1  16  8
1  19  8
10  12  8
11  12  8
16  20  8
17  19  8
17  20  8
17  21  8
19  22  8
21  23  8
22  24  8
23  24  8
5  11  8
5  9  8
8  10  8
8  9  8

> <PUBCHEM_BOND_DEF_STEREO_COUNT>
0

> <PUBCHEM_BOND_UDEF_STEREO_COUNT>
0

> <PUBCHEM_CACTVS_COMPLEXITY>
424

> <PUBCHEM_CACTVS_HBOND_ACCEPTOR>
3

> <PUBCHEM_CACTVS_HBOND_DONOR>
1

> <PUBCHEM_CACTVS_ROTATABLE_BOND>
5

> <PUBCHEM_CACTVS_SUBSKEYS>
AAADceB7MAAAAAAAAAAAAAAAAAAAASAAAAAwYAAAAAAAAEgB9AAAHgAQAAAADAzBmAQyxsPABECIAqVSUAKCCAAlIgAIiAHObMgOJjLEtb+HOSjk1BHY6YeY36LuAACAQAAKAAAAAQCAABQAAAAAAAAAAA==

> <PUBCHEM_CACTVS_TAUTO_COUNT>
2

> <PUBCHEM_CACTVS_TPSA>
45.5

> <PUBCHEM_COMPONENT_COUNT>
1

> <PUBCHEM_COMPOUND_CANONICALIZED>
1

> <PUBCHEM_COMPOUND_CID>
952835

> <PUBCHEM_COORDINATE_TYPE>
1
5
255

> <PUBCHEM_EXACT_MASS>
322.168128

> <PUBCHEM_HEAVY_ATOM_COUNT>
24

> <PUBCHEM_ISOTOPIC_ATOM_COUNT>
0

> <PUBCHEM_IUPAC_CAS_NAME>
N-[4-(diethylamino)-2-methylphenyl]-2-benzofurancarboxamide

> <PUBCHEM_IUPAC_INCHI>
InChI=1S/C20H22N2O2/c1-4-22(5-2)16-10-11-17(14(3)12-16)21-20(23)19-13-15-8-6-7-9-18(15)24-19/h6-13H,4-5H2,1-3H3,(H,21,23)

> <PUBCHEM_IUPAC_INCHIKEY>
KCBDFPPSMORIIJ-UHFFFAOYSA-N

> <PUBCHEM_IUPAC_NAME>
N-[4-(diethylamino)-2-methylphenyl]-1-benzofuran-2-carboxamide

> <PUBCHEM_IUPAC_OPENEYE_NAME>
N-[4-(diethylamino)-2-methyl-phenyl]benzofuran-2-carboxamide

> <PUBCHEM_IUPAC_SYSTEMATIC_NAME>
N-[4-(diethylamino)-2-methyl-phenyl]-1-benzofuran-2-carboxamide

> <PUBCHEM_IUPAC_TRADITIONAL_NAME>
N-[4-(diethylamino)-2-methyl-phenyl]coumarilamide

> <PUBCHEM_MOLECULAR_FORMULA>
C20H22N2O2

> <PUBCHEM_MOLECULAR_WEIGHT>
322.40088

> <PUBCHEM_MONOISOTOPIC_WEIGHT>
322.168128

> <PUBCHEM_OPENEYE_CAN_SMILES>
CCN(CC)C1=CC(=C(C=C1)NC(=O)C2=CC3=CC=CC=C3O2)C

> <PUBCHEM_OPENEYE_ISO_SMILES>
CCN(CC)C1=CC(=C(C=C1)NC(=O)C2=CC3=CC=CC=C3O2)C

> <PUBCHEM_TOTAL_CHARGE>
0

> <PUBCHEM_XLOGP3_AA>
4.7

$$$$
Written by BCL::WriteToMDL,1087077
MBcorina  10171218483D 1   1.00000     0.00000 
CORINA 3.49 0026  01.06.2011
 36 38  0  0  0  0  0  0  0  0999 V2000
   -0.0218    1.7539    0.0117 S   0  0  0  1  0  2  0  0  0  0  0  0
    0.1719   -2.8223   -0.0157 O   0  0  0  1  0  2  0  0  0  0  0  0
   -4.8318   -0.5385    0.0573 O   0  0  0  1  0  2  0  0  0  0  0  0
   -4.5585   -3.2748    0.0303 O   0  0  0  1  0  2  0  0  0  0  0  0
    1.2189   -0.4363   -0.0119 N   0  0  0  1  0  2  0  0  0  0  0  0
   -1.1980   -0.8636    0.0089 C   0  0  0  1  0  3  0  0  0  0  0  0
    0.0021   -0.0041    0.0020 C   0  0  0  1  0  3  0  0  0  0  0  0
   -1.0636   -2.2579    0.0001 C   0  0  0  1  0  3  0  0  0  0  0  0
   -2.4712   -0.2892    0.0299 C   0  0  0  1  0  3  0  0  0  0  0  0
    1.7397    1.7911   -0.0049 C   0  0  0  1  0  3  0  0  0  0  0  0
    2.2097    0.4728   -0.0165 C   0  0  0  1  0  3  0  0  0  0  0  0
   -3.5913   -1.0973    0.0368 C   0  0  0  1  0  3  0  0  0  0  0  0
   -3.4533   -2.4841    0.0231 C   0  0  0  1  0  3  0  0  0  0  0  0
   -2.1922   -3.0595    0.0070 C   0  0  0  1  0  3  0  0  0  0  0  0
    2.6349    2.8583   -0.0071 C   0  0  0  1  0  3  0  0  0  0  0  0
    3.6054    0.2586   -0.0314 C   0  0  0  1  0  3  0  0  0  0  0  0
    3.9918    2.6242   -0.0206 C   0  0  0  1  0  3  0  0  0  0  0  0
    4.4713    1.3223   -0.0339 C   0  0  0  1  0  3  0  0  0  0  0  0
    0.2328   -4.2500   -0.0239 C   0  0  0  1  0  4  0  0  0  0  0  0
   -4.9001    0.8888    0.0709 C   0  0  0  1  0  4  0  0  0  0  0  0
   -4.3454   -4.6878    0.0155 C   0  0  0  1  0  4  0  0  0  0  0  0
   -2.5795    0.7853    0.0413 H   0  0  0  1  0  1  0  0  0  0  0  0
   -2.0901   -4.1347   -0.0001 H   0  0  0  1  0  1  0  0  0  0  0  0
    2.2637    3.8725    0.0016 H   0  0  0  1  0  1  0  0  0  0  0  0
    3.9936   -0.7492   -0.0405 H   0  0  0  1  0  1  0  0  0  0  0  0
    4.6829    3.4541   -0.0222 H   0  0  0  1  0  1  0  0  0  0  0  0
    5.5365    1.1448   -0.0450 H   0  0  0  1  0  1  0  0  0  0  0  0
    1.2750   -4.5691   -0.0363 H   0  0  0  1  0  1  0  0  0  0  0  0
   -0.2558   -4.6397    0.8692 H   0  0  0  1  0  1  0  0  0  0  0  0
   -0.2742   -4.6302   -0.9107 H   0  0  0  1  0  1  0  0  0  0  0  0
   -4.3932    1.2684    0.9580 H   0  0  0  1  0  1  0  0  0  0  0  0
   -4.4155    1.2843   -0.8217 H   0  0  0  1  0  1  0  0  0  0  0  0
   -5.9439    1.2025    0.0868 H   0  0  0  1  0  1  0  0  0  0  0  0
   -5.3073   -5.2004    0.0233 H   0  0  0  1  0  1  0  0  0  0  0  0
   -3.7945   -4.9627   -0.8839 H   0  0  0  1  0  1  0  0  0  0  0  0
   -3.7719   -4.9780    0.8958 H   0  0  0  1  0  1  0  0  0  0  0  0
  1  7  1  0  0  0  0
  1 10  1  0  0  0  0
  2  8  1  0  0  0  0
  2 19  1  0  0  0  0
  3 12  1  0  0  0  0
  3 20  1  0  0  0  0
  4 13  1  0  0  0  0
  4 21  1  0  0  0  0
  5  7  2  0  0  0  0
  5 11  1  0  0  0  0
  6  7  1  0  0  0  0
  6  8  1  0  0  0  0
  6  9  2  0  0  0  0
  8 14  2  0  0  0  0
  9 12  1  0  0  0  0
  9 22  1  0  0  0  0
 10 11  1  0  0  0  0
 10 15  2  0  0  0  0
 11 16  2  0  0  0  0
 12 13  2  0  0  0  0
 13 14  1  0  0  0  0
 14 23  1  0  0  0  0
 15 17  1  0  0  0  0
 15 24  1  0  0  0  0
 16 18  1  0  0  0  0
 16 25  1  0  0  0  0
 17 18  2  0  0  0  0
 17 26  1  0  0  0  0
 18 27  1  0  0  0  0
 19 28  1  0  0  0  0
 19 29  1  0  0  0  0
 19 30  1  0  0  0  0
 20 31  1  0  0  0  0
 20 32  1  0  0  0  0
 20 33  1  0  0  0  0
 21 34  1  0  0  0  0
 21 35  1  0  0  0  0
 21 36  1  0  0  0  0
M  END
> <Activity>
0.46007

> <Mapped(file=504701.csv.activities,property=Cached(PUBCHEM_COMPOUND_CID))>
0.46007

> <PUBCHEM_ATOM_DEF_STEREO_COUNT>
0

> <PUBCHEM_ATOM_UDEF_STEREO_COUNT>
0

> <PUBCHEM_BONDANNOTATIONS>
1  10  8
1  7  8
10  11  8
10  15  8
11  16  8
12  13  8
13  14  8
15  17  8
16  18  8
17  18  8
5  11  8
5  7  8
6  8  8
6  9  8
8  14  8
9  12  8

> <PUBCHEM_BOND_DEF_STEREO_COUNT>
0

> <PUBCHEM_BOND_UDEF_STEREO_COUNT>
0

> <PUBCHEM_CACTVS_COMPLEXITY>
344

> <PUBCHEM_CACTVS_HBOND_ACCEPTOR>
4

> <PUBCHEM_CACTVS_HBOND_DONOR>
0

> <PUBCHEM_CACTVS_ROTATABLE_BOND>
4

> <PUBCHEM_CACTVS_SUBSKEYS>
AAADccB6MABAAAAAAAAAAAAAAAAAAWAAAAAwYAAAAAAAAFgB9AAAHgQAAAAADAyB3gIyx7IIFAikAyRiRACD+KBhKjhImDw27JgNJ6LksZuEMCpnwBXq6Afw8D4OIQABCAAIQQBCAAIQABCCAAAAAAAAAA==

> <PUBCHEM_CACTVS_TAUTO_COUNT>
1

> <PUBCHEM_CACTVS_TPSA>
68.8

> <PUBCHEM_COMPONENT_COUNT>
1

> <PUBCHEM_COMPOUND_CANONICALIZED>
1

> <PUBCHEM_COMPOUND_CID>
1087077

> <PUBCHEM_COORDINATE_TYPE>
1
5
255

> <PUBCHEM_EXACT_MASS>
301.077264

> <PUBCHEM_HEAVY_ATOM_COUNT>
21

> <PUBCHEM_ISOTOPIC_ATOM_COUNT>
0

> <PUBCHEM_IUPAC_CAS_NAME>
2-(2,4,5-trimethoxyphenyl)-1,3-benzothiazole

> <PUBCHEM_IUPAC_INCHI>
InChI=1S/C16H15NO3S/c1-18-12-9-14(20-3)13(19-2)8-10(12)16-17-11-6-4-5-7-15(11)21-16/h4-9H,1-3H3

> <PUBCHEM_IUPAC_INCHIKEY>
JOYFHMJAXMRBJM-UHFFFAOYSA-N

> <PUBCHEM_IUPAC_NAME>
2-(2,4,5-trimethoxyphenyl)-1,3-benzothiazole

> <PUBCHEM_IUPAC_OPENEYE_NAME>
2-(2,4,5-trimethoxyphenyl)-1,3-benzothiazole

> <PUBCHEM_IUPAC_SYSTEMATIC_NAME>
2-(2,4,5-trimethoxyphenyl)-1,3-benzothiazole

> <PUBCHEM_IUPAC_TRADITIONAL_NAME>
2-asaryl-1,3-benzothiazole

> <PUBCHEM_MOLECULAR_FORMULA>
C16H15NO3S

> <PUBCHEM_MOLECULAR_WEIGHT>
301.3602

> <PUBCHEM_MONOISOTOPIC_WEIGHT>
301.077264

> <PUBCHEM_OPENEYE_CAN_SMILES>
COC1=CC(=C(C=C1C2=NC3=CC=CC=C3S2)OC)OC

> <PUBCHEM_OPENEYE_ISO_SMILES>
COC1=CC(=C(C=C1C2=NC3=CC=CC=C3S2)OC)OC

> <PUBCHEM_TOTAL_CHARGE>
0

> <PUBCHEM_XLOGP3_AA>
4

$$$$
Written by BCL::WriteToMDL,5345764
MBcorina  10171218483D 1   1.00000     0.00000 
CORINA 3.49 0026  01.06.2011
 34 36  0  0  0  0  0  0  0  0999 V2000
   -1.1765   -4.0221   -2.4548 S   0  0  0  1  0  1  0  0  0  0  0  0
    1.1147   -8.7770    2.0978 O   0  0  0  1  0  1  0  0  0  0  0  0
   -0.6780    1.3170    0.1715 O   0  0  0  1  0  2  0  0  0  0  0  0
    0.2733   -6.8714   -0.1133 N   0  0  0  1  0  3  0  0  0  0  0  0
    0.8073  -10.3493    0.4975 N   0  0  0  1  0  2  0  0  0  0  0  0
   -0.2878   -6.1878   -1.1999 N   0  0  0  1  0  3  0  0  0  0  0  0
   -0.1541   -4.1846   -0.0087 N   0  0  0  1  0  3  0  0  0  0  0  0
    0.1618   -9.0558   -1.2562 C   0  0  0  1  0  3  0  0  0  0  0  0
    0.3975   -8.2003   -0.1526 C   0  0  0  1  0  3  0  0  0  0  0  0
    0.4269  -10.3774   -0.8118 C   0  0  0  1  0  3  0  0  0  0  0  0
   -0.2480   -8.8280   -2.5754 C   0  0  0  1  0  3  0  0  0  0  0  0
    0.8183   -9.1143    0.9661 C   0  0  0  1  0  3  0  0  0  0  0  0
    0.2725  -11.4321   -1.7073 C   0  0  0  1  0  3  0  0  0  0  0  0
   -0.3914   -9.8946   -3.4410 C   0  0  0  1  0  3  0  0  0  0  0  0
   -0.1333  -11.1856   -3.0091 C   0  0  0  1  0  3  0  0  0  0  0  0
   -0.2868   -2.7907    0.0368 C   0  0  0  1  0  3  0  0  0  0  0  0
   -0.4909   -4.8574   -1.1270 C   0  0  0  1  0  3  0  0  0  0  0  0
   -1.4502   -2.1883   -0.4231 C   0  0  0  1  0  3  0  0  0  0  0  0
    0.7427   -2.0113    0.5472 C   0  0  0  1  0  3  0  0  0  0  0  0
   -1.5805   -0.8143   -0.3774 C   0  0  0  1  0  3  0  0  0  0  0  0
    0.6113   -0.6374    0.5918 C   0  0  0  1  0  3  0  0  0  0  0  0
   -0.5492   -0.0359    0.1273 C   0  0  0  1  0  3  0  0  0  0  0  0
   -0.4507   -7.8229   -2.9146 H   0  0  0  1  0  1  0  0  0  0  0  0
    0.4696  -12.4444   -1.3868 H   0  0  0  1  0  1  0  0  0  0  0  0
    0.5716   -6.3793    0.6676 H   0  0  0  1  0  1  0  0  0  0  0  0
   -0.7078   -9.7216   -4.4591 H   0  0  0  1  0  1  0  0  0  0  0  0
   -0.2497  -12.0107   -3.6961 H   0  0  0  1  0  1  0  0  0  0  0  0
   -0.5302   -6.6720   -2.0047 H   0  0  0  1  0  1  0  0  0  0  0  0
    0.1801   -4.6655    0.7645 H   0  0  0  1  0  1  0  0  0  0  0  0
   -2.2530   -2.7942   -0.8167 H   0  0  0  1  0  1  0  0  0  0  0  0
    1.6462   -2.4795    0.9092 H   0  0  0  1  0  1  0  0  0  0  0  0
   -2.4854   -0.3457   -0.7351 H   0  0  0  1  0  1  0  0  0  0  0  0
    1.4120   -0.0310    0.9887 H   0  0  0  1  0  1  0  0  0  0  0  0
   -1.0659    1.6486    0.9929 H   0  0  0  1  0  1  0  0  0  0  0  0
  1 17  2  0  0  0  0
  2 12  2  0  0  0  0
  3 22  1  0  0  0  0
  3 34  1  0  0  0  0
  4  6  1  0  0  0  0
  4  9  1  0  0  0  0
  4 25  1  0  0  0  0
  5 10  2  0  0  0  0
  5 12  1  0  0  0  0
  6 17  1  0  0  0  0
  6 28  1  0  0  0  0
  7 16  1  0  0  0  0
  7 17  1  0  0  0  0
  7 29  1  0  0  0  0
  8  9  2  0  0  0  0
  8 10  1  0  0  0  0
  8 11  1  0  0  0  0
  9 12  1  0  0  0  0
 10 13  1  0  0  0  0
 11 14  2  0  0  0  0
 11 23  1  0  0  0  0
 13 15  2  0  0  0  0
 13 24  1  0  0  0  0
 14 15  1  0  0  0  0
 14 26  1  0  0  0  0
 15 27  1  0  0  0  0
 16 18  2  0  0  0  0
 16 19  1  0  0  0  0
 18 20  1  0  0  0  0
 18 30  1  0  0  0  0
 19 21  2  0  0  0  0
 19 31  1  0  0  0  0
 20 22  2  0  0  0  0
 20 32  1  0  0  0  0
 21 22  1  0  0  0  0
 21 33  1  0  0  0  0
M  END
> <Activity>
3.238

> <Mapped(file=504701.csv.activities,property=Cached(PUBCHEM_COMPOUND_CID))>
3.238

> <PUBCHEM_ATOM_DEF_STEREO_COUNT>
0

> <PUBCHEM_ATOM_UDEF_STEREO_COUNT>
0

> <PUBCHEM_BONDANNOTATIONS>
10  13  8
11  14  8
13  15  8
14  15  8
16  18  8
16  19  8
18  20  8
19  21  8
20  22  8
21  22  8
8  10  8
8  11  8

> <PUBCHEM_BOND_DEF_STEREO_COUNT>
0

> <PUBCHEM_BOND_UDEF_STEREO_COUNT>
0

> <PUBCHEM_CACTVS_COMPLEXITY>
613

> <PUBCHEM_CACTVS_HBOND_ACCEPTOR>
4

> <PUBCHEM_CACTVS_HBOND_DONOR>
4

> <PUBCHEM_CACTVS_ROTATABLE_BOND>
3

> <PUBCHEM_CACTVS_SUBSKEYS>
AAADccBzsABAAAAAAAAAAAAAAAAAAQAAAAAwQAAAAAAAAEABAAAAHgQYCAAADAyBkAAxxoLiAgCsAyVyVACCAAAhIgscqAC2bNiIZiLCkZOEcAh00BNI2SewQAAAAEAAAAAAAAAAgAAAAAAAAAAAAAAAAA==

> <PUBCHEM_CACTVS_TAUTO_COUNT>
85

> <PUBCHEM_CACTVS_TPSA>
118

> <PUBCHEM_COMPONENT_COUNT>
1

> <PUBCHEM_COMPOUND_CANONICALIZED>
1

> <PUBCHEM_COMPOUND_CID>
5345764

> <PUBCHEM_COORDINATE_TYPE>
1
5
255

> <PUBCHEM_EXACT_MASS>
312.068097

> <PUBCHEM_HEAVY_ATOM_COUNT>
22

> <PUBCHEM_ISOTOPIC_ATOM_COUNT>
0

> <PUBCHEM_IUPAC_CAS_NAME>
1-(4-hydroxyphenyl)-3-[(2-oxo-3-indolyl)amino]thiourea

> <PUBCHEM_IUPAC_INCHI>
InChI=1S/C15H12N4O2S/c20-10-7-5-9(6-8-10)16-15(22)19-18-13-11-3-1-2-4-12(11)17-14(13)21/h1-8,20H,(H2,16,19,22)(H,17,18,21)

> <PUBCHEM_IUPAC_INCHIKEY>
ZHHRPVBWMDMZBF-UHFFFAOYSA-N

> <PUBCHEM_IUPAC_NAME>
1-(4-hydroxyphenyl)-3-[(2-oxoindol-3-yl)amino]thiourea

> <PUBCHEM_IUPAC_OPENEYE_NAME>
1-(4-hydroxyphenyl)-3-[(2-oxoindol-3-yl)amino]thiourea

> <PUBCHEM_IUPAC_SYSTEMATIC_NAME>
1-(4-hydroxyphenyl)-3-[(2-oxidanylideneindol-3-yl)amino]thiourea

> <PUBCHEM_IUPAC_TRADITIONAL_NAME>
1-(4-hydroxyphenyl)-3-[(2-ketoindol-3-yl)amino]thiourea

> <PUBCHEM_MOLECULAR_FORMULA>
C15H12N4O2S

> <PUBCHEM_MOLECULAR_WEIGHT>
312.34638

> <PUBCHEM_MONOISOTOPIC_WEIGHT>
312.068097

> <PUBCHEM_OPENEYE_CAN_SMILES>
C1=CC2=C(C(=O)N=C2C=C1)NNC(=S)NC3=CC=C(C=C3)O

> <PUBCHEM_OPENEYE_ISO_SMILES>
C1=CC2=C(C(=O)N=C2C=C1)NNC(=S)NC3=CC=C(C=C3)O

> <PUBCHEM_TOTAL_CHARGE>
0

> <PUBCHEM_XLOGP3_AA>
2.8

$$$$
Largest component of Written by BCL::WriteToMDL,53312881
MBcorina  10171218483D 1   1.00000     0.00000 
CORINA 3.49 0026  01.06.2011
 61 64  0  0  0  0  0  0  0  0999 V2000
   -0.2024    1.6661    0.6187 S   0  0  0  1  0  2  0  0  0  0  0  0
   -1.0534   -6.5803   -0.8841 O   0  0  0  1  0  2  0  0  0  0  0  0
    1.0355   -8.5282    1.5466 O   0  0  0  1  0  1  0  0  0  0  0  0
   -1.6308   -5.0725    2.6353 O   0  0  0  1  0  1  0  0  0  0  0  0
    0.4249   -8.1651   -1.3158 O   0  0  0  1  0  1  0  0  0  0  0  0
   -2.5116   -0.2164    0.6271 O   0  0  0  1  0  2  0  0  0  0  0  0
    1.0812   -4.7556   -0.7878 N   0  0  0  1  0  3  0  0  0  0  0  0
   -0.4731   -6.9710    2.2020 N   0  0  0  1  0  3  0  0  0  0  0  0
    1.3423   -6.1780   -0.4433 C   0  0  0  1  0  4  0  0  0  0  0  0
    1.4136   -6.1783    1.0882 C   0  0  0  1  0  4  0  0  0  0  0  0
    0.5093   -4.9792    1.5057 C   0  0  0  1  0  4  0  0  0  0  0  0
    0.0395   -4.3515    0.1688 C   0  0  0  1  0  4  0  0  0  0  0  0
    2.6450   -6.5827   -1.1197 C   0  0  0  1  0  4  0  0  0  0  0  0
    0.7402   -4.6552   -2.2006 C   0  0  0  1  0  4  0  0  0  0  0  0
    0.6635   -7.3771    1.6257 C   0  0  0  1  0  3  0  0  0  0  0  0
    2.4350   -6.4691   -2.6376 C   0  0  0  1  0  4  0  0  0  0  0  0
   -0.6645   -5.6471    2.1818 C   0  0  0  1  0  3  0  0  0  0  0  0
    1.9796   -5.0596   -3.0133 C   0  0  0  1  0  4  0  0  0  0  0  0
    0.2046   -7.0475   -0.9130 C   0  0  0  1  0  3  0  0  0  0  0  0
   -0.0234   -2.8500    0.2812 C   0  0  0  1  0  3  0  0  0  0  0  0
   -1.4309   -7.9006    2.8058 C   0  0  0  1  0  4  0  0  0  0  0  0
   -1.2476   -2.2184    0.4039 C   0  0  0  1  0  3  0  0  0  0  0  0
    1.1434   -2.1082    0.2677 C   0  0  0  1  0  3  0  0  0  0  0  0
   -1.0810   -8.1066    4.2810 C   0  0  0  1  0  4  0  0  0  0  0  0
   -1.3083   -0.8388    0.5073 C   0  0  0  1  0  3  0  0  0  0  0  0
    1.0921   -0.7310    0.3704 C   0  0  0  1  0  3  0  0  0  0  0  0
   -2.0990   -7.4728   -1.3517 C   0  0  0  1  0  4  0  0  0  0  0  0
   -0.1332   -0.0897    0.4880 C   0  0  0  1  0  3  0  0  0  0  0  0
   -3.6738   -1.0478    0.6392 C   0  0  0  1  0  4  0  0  0  0  0  0
    1.5443    2.1500    0.5447 C   0  0  0  1  0  4  0  0  0  0  0  0
    1.6565    3.6724    0.6473 C   0  0  0  1  0  4  0  0  0  0  0  0
    2.4331   -6.0981    1.4656 H   0  0  0  1  0  1  0  0  0  0  0  0
    1.0242   -4.2639    2.1470 H   0  0  0  1  0  1  0  0  0  0  0  0
   -0.9290   -4.7559   -0.1253 H   0  0  0  1  0  1  0  0  0  0  0  0
    3.4474   -5.9148   -0.8063 H   0  0  0  1  0  1  0  0  0  0  0  0
    2.8944   -7.6107   -0.8567 H   0  0  0  1  0  1  0  0  0  0  0  0
   -0.0866   -5.3275   -2.4294 H   0  0  0  1  0  1  0  0  0  0  0  0
    0.4601   -3.6295   -2.4406 H   0  0  0  1  0  1  0  0  0  0  0  0
    3.3722   -6.6919   -3.1477 H   0  0  0  1  0  1  0  0  0  0  0  0
    1.6768   -7.1871   -2.9502 H   0  0  0  1  0  1  0  0  0  0  0  0
    1.7372   -5.0317   -4.0756 H   0  0  0  1  0  1  0  0  0  0  0  0
    2.7868   -4.3556   -2.8113 H   0  0  0  1  0  1  0  0  0  0  0  0
   -2.4370   -7.4890    2.7251 H   0  0  0  1  0  1  0  0  0  0  0  0
   -1.3868   -8.8571    2.2850 H   0  0  0  1  0  1  0  0  0  0  0  0
   -2.1567   -2.8013    0.4182 H   0  0  0  1  0  1  0  0  0  0  0  0
    2.0973   -2.6063    0.1759 H   0  0  0  1  0  1  0  0  0  0  0  0
   -1.1251   -7.1502    4.8019 H   0  0  0  1  0  1  0  0  0  0  0  0
   -1.7937   -8.7982    4.7303 H   0  0  0  1  0  1  0  0  0  0  0  0
   -0.0749   -8.5182    4.3617 H   0  0  0  1  0  1  0  0  0  0  0  0
    2.0050   -0.1541    0.3596 H   0  0  0  1  0  1  0  0  0  0  0  0
   -2.1073   -8.3747   -0.7397 H   0  0  0  1  0  1  0  0  0  0  0  0
   -3.0645   -6.9728   -1.2752 H   0  0  0  1  0  1  0  0  0  0  0  0
   -1.9099   -7.7407   -2.3912 H   0  0  0  1  0  1  0  0  0  0  0  0
   -4.5639   -0.4268    0.7394 H   0  0  0  1  0  1  0  0  0  0  0  0
   -3.7270   -1.6115   -0.2923 H   0  0  0  1  0  1  0  0  0  0  0  0
   -3.6169   -1.7396    1.4797 H   0  0  0  1  0  1  0  0  0  0  0  0
    2.0843    1.6893    1.3719 H   0  0  0  1  0  1  0  0  0  0  0  0
    1.9739    1.8169   -0.4001 H   0  0  0  1  0  1  0  0  0  0  0  0
    1.1165    4.1331   -0.1799 H   0  0  0  1  0  1  0  0  0  0  0  0
    1.2269    4.0056    1.5920 H   0  0  0  1  0  1  0  0  0  0  0  0
    2.7060    3.9632    0.6028 H   0  0  0  1  0  1  0  0  0  0  0  0
  1 28  1  0  0  0  0
  1 30  1  0  0  0  0
  2 19  1  0  0  0  0
  2 27  1  0  0  0  0
  3 15  2  0  0  0  0
  4 17  2  0  0  0  0
  5 19  2  0  0  0  0
  6 25  1  0  0  0  0
  6 29  1  0  0  0  0
  7  9  1  0  0  0  0
  7 12  1  0  0  0  0
  7 14  1  0  0  0  0
  8 15  1  0  0  0  0
  8 17  1  0  0  0  0
  8 21  1  0  0  0  0
  9 10  1  0  0  0  0
  9 13  1  0  0  0  0
  9 19  1  0  0  0  0
 10 11  1  0  0  0  0
 10 15  1  0  0  0  0
 10 32  1  0  0  0  0
 11 12  1  0  0  0  0
 11 17  1  0  0  0  0
 11 33  1  0  0  0  0
 12 20  1  0  0  0  0
 12 34  1  0  0  0  0
 13 16  1  0  0  0  0
 13 35  1  0  0  0  0
 13 36  1  0  0  0  0
 14 18  1  0  0  0  0
 14 37  1  0  0  0  0
 14 38  1  0  0  0  0
 16 18  1  0  0  0  0
 16 39  1  0  0  0  0
 16 40  1  0  0  0  0
 18 41  1  0  0  0  0
 18 42  1  0  0  0  0
 20 22  2  0  0  0  0
 20 23  1  0  0  0  0
 21 24  1  0  0  0  0
 21 43  1  0  0  0  0
 21 44  1  0  0  0  0
 22 25  1  0  0  0  0
 22 45  1  0  0  0  0
 23 26  2  0  0  0  0
 23 46  1  0  0  0  0
 24 47  1  0  0  0  0
 24 48  1  0  0  0  0
 24 49  1  0  0  0  0
 25 28  2  0  0  0  0
 26 28  1  0  0  0  0
 26 50  1  0  0  0  0
 27 51  1  0  0  0  0
 27 52  1  0  0  0  0
 27 53  1  0  0  0  0
 29 54  1  0  0  0  0
 29 55  1  0  0  0  0
 29 56  1  0  0  0  0
 30 31  1  0  0  0  0
 30 57  1  0  0  0  0
 30 58  1  0  0  0  0
 31 59  1  0  0  0  0
 31 60  1  0  0  0  0
 31 61  1  0  0  0  0
M  END
> <Activity>
2.654

> <Mapped(file=504701.csv.activities,property=Cached(PUBCHEM_COMPOUND_CID))>
2.654

> <PUBCHEM_ATOM_DEF_STEREO_COUNT>
4

> <PUBCHEM_ATOM_UDEF_STEREO_COUNT>
0

> <PUBCHEM_BONDANNOTATIONS>
14  24  5
15  39  6
16  40  6
17  25  6
25  27  8
25  28  8
27  30  8
28  31  8
30  33  8
31  33  8

> <PUBCHEM_BOND_DEF_STEREO_COUNT>
0

> <PUBCHEM_BOND_UDEF_STEREO_COUNT>
0

> <PUBCHEM_CACTVS_COMPLEXITY>
816

> <PUBCHEM_CACTVS_HBOND_ACCEPTOR>
12

> <PUBCHEM_CACTVS_HBOND_DONOR>
1

> <PUBCHEM_CACTVS_ROTATABLE_BOND>
7

> <PUBCHEM_CACTVS_SUBSKEYS>
AAADceB7OYBAAAAAAAAAAAAAAAAAAWLAAAA8QAAAAAAWAFgBAAAAHwQACAAADazF2BayD4MABgiIAiHSGACCCAAgKBAIiBuODIgOJjqk8TuFMChkxjG4qAe/3/OekAABAAAAIAAgAAIAAABAAAAAAAAAAA==

> <PUBCHEM_CACTVS_TAUTO_COUNT>
4

> <PUBCHEM_CACTVS_TPSA>
139

> <PUBCHEM_COMPONENT_COUNT>
2

> <PUBCHEM_COMPOUND_CANONICALIZED>
1

> <PUBCHEM_COMPOUND_CID>
53312881

> <PUBCHEM_COORDINATE_TYPE>
1
5
255

> <PUBCHEM_EXACT_MASS>
560.180407

> <PUBCHEM_HEAVY_ATOM_COUNT>
38

> <PUBCHEM_ISOTOPIC_ATOM_COUNT>
0

> <PUBCHEM_IUPAC_CAS_NAME>
(3aS,4S,9aS,9bR)-2-ethyl-4-[4-(ethylthio)-3-methoxyphenyl]-1,3-dioxo-4,6,7,8,9,9b-hexahydro-3aH-pyrrolo[3,4-a]indolizine-9a-carboxylic acid methyl ester; 2,2,2-trifluoroacetic acid

> <PUBCHEM_IUPAC_INCHI>
InChI=1S/C23H30N2O5S.C2HF3O2/c1-5-24-20(26)17-18(21(24)27)23(22(28)30-4)11-7-8-12-25(23)19(17)14-9-10-16(31-6-2)15(13-14)29-3;3-2(4,5)1(6)7/h9-10,13,17-19H,5-8,11-12H2,1-4H3;(H,6,7)/t17-,18-,19+,23-;/m0./s1

> <PUBCHEM_IUPAC_INCHIKEY>
GGAPVSCGYJFFOX-OWMDVXATSA-N

> <PUBCHEM_IUPAC_NAME>
methyl (3aS,4S,9aS,9bR)-2-ethyl-4-(4-ethylsulfanyl-3-methoxyphenyl)-1,3-dioxo-4,6,7,8,9,9b-hexahydro-3aH-pyrrolo[3,4-a]indolizine-9a-carboxylate; 2,2,2-trifluoroacetic acid

> <PUBCHEM_IUPAC_OPENEYE_NAME>
methyl (3aS,4S,9aS,9bR)-2-ethyl-4-(4-ethylsulfanyl-3-methoxy-phenyl)-1,3-dioxo-4,6,7,8,9,9b-hexahydro-3aH-pyrrolo[3,4-a]indolizine-9a-carboxylate; 2,2,2-trifluoroacetic acid

> <PUBCHEM_IUPAC_SYSTEMATIC_NAME>
methyl (3aS,4S,9aS,9bR)-2-ethyl-4-(4-ethylsulfanyl-3-methoxy-phenyl)-1,3-bis(oxidanylidene)-4,6,7,8,9,9b-hexahydro-3aH-pyrrolo[3,4-a]indolizine-9a-carboxylate; 2,2,2-tris(fluoranyl)ethanoic acid

> <PUBCHEM_IUPAC_TRADITIONAL_NAME>
(3aS,4S,9aS,9bR)-2-ethyl-4-[4-(ethylthio)-3-methoxy-phenyl]-1,3-diketo-4,6,7,8,9,9b-hexahydro-3aH-pyrrol[3,4-a]indolizine-9a-carboxylic acid methyl ester; 2,2,2-trifluoroacetic acid

> <PUBCHEM_MOLECULAR_FORMULA>
C25H31F3N2O7S

> <PUBCHEM_MOLECULAR_WEIGHT>
560.58305

> <PUBCHEM_MONOISOTOPIC_WEIGHT>
560.180407

> <PUBCHEM_OPENEYE_CAN_SMILES>
CCN1C(=O)C2C(C1=O)C3(CCCCN3C2C4=CC(=C(C=C4)SCC)OC)C(=O)OC.C(=O)(C(F)(F)F)O

> <PUBCHEM_OPENEYE_ISO_SMILES>
CCN1C(=O)[C@H]2[C@@H](C1=O)[C@@]3(CCCCN3[C@@H]2C4=CC(=C(C=C4)SCC)OC)C(=O)OC.C(=O)(C(F)(F)F)O

> <PUBCHEM_TOTAL_CHARGE>
0

$$$$
Written by BCL::WriteToMDL,20880646
MBcorina  10171218483D 1   1.00000     0.00000 
CORINA 3.49 0026  01.06.2011
 52 55  0  0  0  0  0  0  0  0999 V2000
    2.6452    3.7176   -0.0547 S   0  0  0  1  0  4  0  0  0  0  0  0
    2.2068    5.0564    0.1319 O   0  0  0  1  0  1  0  0  0  0  0  0
    3.1835    2.9230    0.9932 O   0  0  0  1  0  1  0  0  0  0  0  0
   -0.5095    4.0904    0.9277 O   0  0  0  1  0  1  0  0  0  0  0  0
    1.3494    2.8810   -0.6576 N   0  0  0  1  0  3  0  0  0  0  0  0
   -1.1704    5.4873   -0.6641 N   0  0  0  1  0  3  0  0  0  0  0  0
    4.3010    1.4303   -1.0801 N   0  0  0  1  0  2  0  0  0  0  0  0
    0.1465    3.4787   -1.2553 C   0  0  0  1  0  4  0  0  0  0  0  0
   -0.7939    2.3199   -1.6484 C   0  0  0  1  0  4  0  0  0  0  0  0
    1.2139    1.4133   -0.6896 C   0  0  0  1  0  4  0  0  0  0  0  0
   -0.3158    1.1596   -0.7360 C   0  0  0  1  0  4  0  0  0  0  0  0
   -0.5342    4.3732   -0.2515 C   0  0  0  1  0  3  0  0  0  0  0  0
    3.8693    3.7668   -1.3211 C   0  0  0  1  0  3  0  0  0  0  0  0
    4.5573    2.5954   -1.6833 C   0  0  0  1  0  3  0  0  0  0  0  0
    4.1519    4.9385   -1.9525 C   0  0  0  1  0  3  0  0  0  0  0  0
   -1.7352    6.3585    0.2740 C   0  0  0  1  0  3  0  0  0  0  0  0
    5.5369    2.6600   -2.7048 C   0  0  0  1  0  3  0  0  0  0  0  0
    5.1162    4.9998   -2.9568 C   0  0  0  1  0  3  0  0  0  0  0  0
    5.8030    3.8867   -3.3346 C   0  0  0  1  0  3  0  0  0  0  0  0
   -1.7294    7.7280    0.0436 C   0  0  0  1  0  3  0  0  0  0  0  0
   -2.3077    5.8551    1.4347 C   0  0  0  1  0  3  0  0  0  0  0  0
    6.2247    1.4861   -3.0660 C   0  0  0  1  0  3  0  0  0  0  0  0
   -2.2877    8.5852    0.9715 C   0  0  0  1  0  3  0  0  0  0  0  0
   -2.8643    6.7177    2.3587 C   0  0  0  1  0  3  0  0  0  0  0  0
    4.9398    0.3353   -1.4136 C   0  0  0  1  0  3  0  0  0  0  0  0
    5.9138    0.3293   -2.4099 C   0  0  0  1  0  3  0  0  0  0  0  0
   -2.8519    8.0812    2.1290 C   0  0  0  1  0  3  0  0  0  0  0  0
   -2.2814   10.0715    0.7225 C   0  0  0  1  0  4  0  0  0  0  0  0
   -3.4862    6.1722    3.6184 C   0  0  0  1  0  4  0  0  0  0  0  0
    0.4187    4.0521   -2.1414 H   0  0  0  1  0  1  0  0  0  0  0  0
   -1.8316    2.5760   -1.4347 H   0  0  0  1  0  1  0  0  0  0  0  0
   -0.6681    2.0609   -2.6996 H   0  0  0  1  0  1  0  0  0  0  0  0
    1.6953    1.0073   -1.5793 H   0  0  0  1  0  1  0  0  0  0  0  0
    1.6440    0.9729    0.2099 H   0  0  0  1  0  1  0  0  0  0  0  0
   -0.7582    1.2358    0.2572 H   0  0  0  1  0  1  0  0  0  0  0  0
   -0.5360    0.1919   -1.1869 H   0  0  0  1  0  1  0  0  0  0  0  0
   -1.2368    5.6853   -1.6114 H   0  0  0  1  0  1  0  0  0  0  0  0
    3.6207    5.8356   -1.6707 H   0  0  0  1  0  1  0  0  0  0  0  0
    5.3207    5.9425   -3.4424 H   0  0  0  1  0  1  0  0  0  0  0  0
    6.5480    3.9467   -4.1142 H   0  0  0  1  0  1  0  0  0  0  0  0
   -1.2886    8.1223   -0.8601 H   0  0  0  1  0  1  0  0  0  0  0  0
   -2.3181    4.7903    1.6146 H   0  0  0  1  0  1  0  0  0  0  0  0
    6.9772    1.4998   -3.8406 H   0  0  0  1  0  1  0  0  0  0  0  0
    4.7045   -0.5868   -0.9030 H   0  0  0  1  0  1  0  0  0  0  0  0
   -3.2878    8.7537    2.8530 H   0  0  0  1  0  1  0  0  0  0  0  0
    6.4229   -0.5890   -2.6627 H   0  0  0  1  0  1  0  0  0  0  0  0
   -3.1876   10.3539    0.1865 H   0  0  0  1  0  1  0  0  0  0  0  0
   -2.2434   10.5994    1.6754 H   0  0  0  1  0  1  0  0  0  0  0  0
   -1.4087   10.3362    0.1254 H   0  0  0  1  0  1  0  0  0  0  0  0
   -2.7534    6.1954    4.4249 H   0  0  0  1  0  1  0  0  0  0  0  0
   -4.3471    6.7822    3.8921 H   0  0  0  1  0  1  0  0  0  0  0  0
   -3.8081    5.1446    3.4492 H   0  0  0  1  0  1  0  0  0  0  0  0
  1  2  2  0  0  0  0
  1  3  2  0  0  0  0
  1  5  1  0  0  0  0
  1 13  1  0  0  0  0
  4 12  2  0  0  0  0
  5  8  1  0  0  0  0
  5 10  1  0  0  0  0
  6 12  1  0  0  0  0
  6 16  1  0  0  0  0
  6 37  1  0  0  0  0
  7 14  1  0  0  0  0
  7 25  2  0  0  0  0
  8  9  1  0  0  0  0
  8 12  1  0  0  0  0
  8 30  1  0  0  0  0
  9 11  1  0  0  0  0
  9 31  1  0  0  0  0
  9 32  1  0  0  0  0
 10 11  1  0  0  0  0
 10 33  1  0  0  0  0
 10 34  1  0  0  0  0
 11 35  1  0  0  0  0
 11 36  1  0  0  0  0
 13 14  1  0  0  0  0
 13 15  2  0  0  0  0
 14 17  2  0  0  0  0
 15 18  1  0  0  0  0
 15 38  1  0  0  0  0
 16 20  2  0  0  0  0
 16 21  1  0  0  0  0
 17 19  1  0  0  0  0
 17 22  1  0  0  0  0
 18 19  2  0  0  0  0
 18 39  1  0  0  0  0
 19 40  1  0  0  0  0
 20 23  1  0  0  0  0
 20 41  1  0  0  0  0
 21 24  2  0  0  0  0
 21 42  1  0  0  0  0
 22 26  2  0  0  0  0
 22 43  1  0  0  0  0
 23 27  2  0  0  0  0
 23 28  1  0  0  0  0
 24 27  1  0  0  0  0
 24 29  1  0  0  0  0
 25 26  1  0  0  0  0
 25 44  1  0  0  0  0
 26 46  1  0  0  0  0
 27 45  1  0  0  0  0
 28 47  1  0  0  0  0
 28 48  1  0  0  0  0
 28 49  1  0  0  0  0
 29 50  1  0  0  0  0
 29 51  1  0  0  0  0
 29 52  1  0  0  0  0
M  END
> <Activity>
0.24438

> <Mapped(file=504701.csv.activities,property=Cached(PUBCHEM_COMPOUND_CID))>
0.24438

> <PUBCHEM_ATOM_DEF_STEREO_COUNT>
0

> <PUBCHEM_ATOM_UDEF_STEREO_COUNT>
1

> <PUBCHEM_BONDANNOTATIONS>
13  14  8
13  15  8
14  17  8
15  18  8
16  20  8
16  21  8
17  19  8
17  22  8
18  19  8
20  23  8
21  24  8
22  26  8
23  27  8
24  27  8
25  26  8
7  14  8
7  25  8
8  12  3

> <PUBCHEM_BOND_DEF_STEREO_COUNT>
0

> <PUBCHEM_BOND_UDEF_STEREO_COUNT>
0

> <PUBCHEM_CACTVS_COMPLEXITY>
682

> <PUBCHEM_CACTVS_HBOND_ACCEPTOR>
5

> <PUBCHEM_CACTVS_HBOND_DONOR>
1

> <PUBCHEM_CACTVS_ROTATABLE_BOND>
4

> <PUBCHEM_CACTVS_SUBSKEYS>
AAADceB7MABAAAAAAAAAAAAAAAAAAWAAAAA8YIAAAAAAAACx9AAAHgQQQAAADCjB3gQ+wfLIEAKoAzV3VHDCgDAxAiAI2D24ZJgIYPLAkbGUIAhglADIyAcYgcAOAAACwAACAQAAAAWAAAQCAAAAAAAAAA==

> <PUBCHEM_CACTVS_TAUTO_COUNT>
3

> <PUBCHEM_CACTVS_TPSA>
87.8

> <PUBCHEM_COMPONENT_COUNT>
1

> <PUBCHEM_COMPOUND_CANONICALIZED>
1

> <PUBCHEM_COMPOUND_CID>
20880646

> <PUBCHEM_COORDINATE_TYPE>
1
5
255

> <PUBCHEM_EXACT_MASS>
409.146013

> <PUBCHEM_HEAVY_ATOM_COUNT>
29

> <PUBCHEM_ISOTOPIC_ATOM_COUNT>
0

> <PUBCHEM_IUPAC_CAS_NAME>
N-(3,5-dimethylphenyl)-1-(8-quinolinylsulfonyl)-2-pyrrolidinecarboxamide

> <PUBCHEM_IUPAC_INCHI>
InChI=1S/C22H23N3O3S/c1-15-12-16(2)14-18(13-15)24-22(26)19-8-5-11-25(19)29(27,28)20-9-3-6-17-7-4-10-23-21(17)20/h3-4,6-7,9-10,12-14,19H,5,8,11H2,1-2H3,(H,24,26)

> <PUBCHEM_IUPAC_INCHIKEY>
DZKJQGVLLCPVCL-UHFFFAOYSA-N

> <PUBCHEM_IUPAC_NAME>
N-(3,5-dimethylphenyl)-1-quinolin-8-ylsulfonylpyrrolidine-2-carboxamide

> <PUBCHEM_IUPAC_OPENEYE_NAME>
N-(3,5-dimethylphenyl)-1-(8-quinolylsulfonyl)pyrrolidine-2-carboxamide

> <PUBCHEM_IUPAC_SYSTEMATIC_NAME>
N-(3,5-dimethylphenyl)-1-quinolin-8-ylsulfonyl-pyrrolidine-2-carboxamide

> <PUBCHEM_IUPAC_TRADITIONAL_NAME>
N-(3,5-dimethylphenyl)-1-(8-quinolylsulfonyl)pyrrolidine-2-carboxamide

> <PUBCHEM_MOLECULAR_FORMULA>
C22H23N3O3S

> <PUBCHEM_MOLECULAR_WEIGHT>
409.50132

> <PUBCHEM_MONOISOTOPIC_WEIGHT>
409.146013

> <PUBCHEM_OPENEYE_CAN_SMILES>
CC1=CC(=CC(=C1)NC(=O)C2CCCN2S(=O)(=O)C3=CC=CC4=C3N=CC=C4)C

> <PUBCHEM_OPENEYE_ISO_SMILES>
CC1=CC(=CC(=C1)NC(=O)C2CCCN2S(=O)(=O)C3=CC=CC4=C3N=CC=C4)C

> <PUBCHEM_TOTAL_CHARGE>
0

> <PUBCHEM_XLOGP3_AA>
3.5

$$$$
Written by BCL::WriteToMDL,1588119
MBcorina  10171218483D 1   1.00000     0.00000 
CORINA 3.49 0026  01.06.2011
 47 49  0  0  0  0  0  0  0  0999 V2000
   -0.0198    1.6058    0.0109 P   0  0  0  1  0  4  0  0  0  0  0  0
    0.0021   -0.0041    0.0020 O   0  0  0  1  0  2  0  0  0  0  0  0
    1.4907    2.1630   -0.0006 O   0  0  0  1  0  2  0  0  0  0  0  0
   -0.7356    2.0960   -1.1881 O   0  0  0  1  0  1  0  0  0  0  0  0
   -3.0294   -1.7035   -3.2443 O   0  0  0  1  0  2  0  0  0  0  0  0
    1.6532    6.5997    1.7040 O   0  0  0  1  0  2  0  0  0  0  0  0
   -0.7874    2.1347    1.3602 N   0  0  0  1  0  3  0  0  0  0  0  0
   -0.2936    1.7969    2.6223 C   0  0  0  1  0  3  0  0  0  0  0  0
    1.5841    3.5025   -0.2099 C   0  0  0  1  0  3  0  0  0  0  0  0
   -1.1925   -0.5714   -0.3110 C   0  0  0  1  0  3  0  0  0  0  0  0
   -0.9425    2.2441    3.7662 C   0  0  0  1  0  3  0  0  0  0  0  0
    0.8444    1.0085    2.7365 C   0  0  0  1  0  3  0  0  0  0  0  0
    1.5709    4.3757    0.8672 C   0  0  0  1  0  3  0  0  0  0  0  0
   -1.5028   -0.8505   -1.6332 C   0  0  0  1  0  3  0  0  0  0  0  0
    1.6984    3.9972   -1.5011 C   0  0  0  1  0  3  0  0  0  0  0  0
   -2.1003   -0.8769    0.6929 C   0  0  0  1  0  3  0  0  0  0  0  0
    1.6663    5.7414    0.6504 C   0  0  0  1  0  3  0  0  0  0  0  0
   -2.7221   -1.4291   -1.9492 C   0  0  0  1  0  3  0  0  0  0  0  0
   -0.4516    1.9084    5.0126 C   0  0  0  1  0  3  0  0  0  0  0  0
    1.3300    0.6765    3.9860 C   0  0  0  1  0  3  0  0  0  0  0  0
   -3.3151   -1.4541    0.3753 C   0  0  0  1  0  3  0  0  0  0  0  0
    1.7938    5.3593   -1.7146 C   0  0  0  1  0  3  0  0  0  0  0  0
    1.7747    6.2317   -0.6435 C   0  0  0  1  0  3  0  0  0  0  0  0
   -3.6292   -1.7276   -0.9420 C   0  0  0  1  0  3  0  0  0  0  0  0
    0.6848    1.1280    5.1227 C   0  0  0  1  0  3  0  0  0  0  0  0
    1.7552    7.9937    1.4065 C   0  0  0  1  0  4  0  0  0  0  0  0
   -4.3033   -2.2998   -3.4965 C   0  0  0  1  0  4  0  0  0  0  0  0
   -1.5843    2.6820    1.2817 H   0  0  0  1  0  1  0  0  0  0  0  0
   -1.8298    2.8539    3.6810 H   0  0  0  1  0  1  0  0  0  0  0  0
    1.3485    0.6552    1.8491 H   0  0  0  1  0  1  0  0  0  0  0  0
    1.4861    3.9923    1.8733 H   0  0  0  1  0  1  0  0  0  0  0  0
   -0.7959   -0.6172   -2.4156 H   0  0  0  1  0  1  0  0  0  0  0  0
    1.7132    3.3173   -2.3401 H   0  0  0  1  0  1  0  0  0  0  0  0
   -1.8572   -0.6637    1.7234 H   0  0  0  1  0  1  0  0  0  0  0  0
   -0.9554    2.2560    5.9024 H   0  0  0  1  0  1  0  0  0  0  0  0
    2.2144    0.0632    4.0754 H   0  0  0  1  0  1  0  0  0  0  0  0
    1.8831    5.7424   -2.7204 H   0  0  0  1  0  1  0  0  0  0  0  0
   -4.0203   -1.6915    1.1581 H   0  0  0  1  0  1  0  0  0  0  0  0
    1.8487    7.2957   -0.8129 H   0  0  0  1  0  1  0  0  0  0  0  0
   -4.5795   -2.1781   -1.1878 H   0  0  0  1  0  1  0  0  0  0  0  0
    1.0666    0.8669    6.0986 H   0  0  0  1  0  1  0  0  0  0  0  0
    2.6921    8.1860    0.8837 H   0  0  0  1  0  1  0  0  0  0  0  0
   -4.3686   -3.2529   -2.9717 H   0  0  0  1  0  1  0  0  0  0  0  0
   -5.0918   -1.6355   -3.1429 H   0  0  0  1  0  1  0  0  0  0  0  0
   -4.4211   -2.4658   -4.5673 H   0  0  0  1  0  1  0  0  0  0  0  0
    0.9187    8.2926    0.7748 H   0  0  0  1  0  1  0  0  0  0  0  0
    1.7327    8.5658    2.3340 H   0  0  0  1  0  1  0  0  0  0  0  0
  1  2  1  0  0  0  0
  1  3  1  0  0  0  0
  1  4  2  0  0  0  0
  1  7  1  0  0  0  0
  2 10  1  0  0  0  0
  3  9  1  0  0  0  0
  5 18  1  0  0  0  0
  5 27  1  0  0  0  0
  6 17  1  0  0  0  0
  6 26  1  0  0  0  0
  7  8  1  0  0  0  0
  7 28  1  0  0  0  0
  8 11  2  0  0  0  0
  8 12  1  0  0  0  0
  9 13  1  0  0  0  0
  9 15  2  0  0  0  0
 10 14  1  0  0  0  0
 10 16  2  0  0  0  0
 11 19  1  0  0  0  0
 11 29  1  0  0  0  0
 12 20  2  0  0  0  0
 12 30  1  0  0  0  0
 13 17  2  0  0  0  0
 13 31  1  0  0  0  0
 14 18  2  0  0  0  0
 14 32  1  0  0  0  0
 15 22  1  0  0  0  0
 15 33  1  0  0  0  0
 16 21  1  0  0  0  0
 16 34  1  0  0  0  0
 17 23  1  0  0  0  0
 18 24  1  0  0  0  0
 19 25  2  0  0  0  0
 19 35  1  0  0  0  0
 20 25  1  0  0  0  0
 20 36  1  0  0  0  0
 21 24  2  0  0  0  0
 21 38  1  0  0  0  0
 22 23  2  0  0  0  0
 22 37  1  0  0  0  0
 23 39  1  0  0  0  0
 24 40  1  0  0  0  0
 25 41  1  0  0  0  0
 26 42  1  0  0  0  0
 26 46  1  0  0  0  0
 26 47  1  0  0  0  0
 27 43  1  0  0  0  0
 27 44  1  0  0  0  0
 27 45  1  0  0  0  0
M  END
> <Activity>
9.265

> <Mapped(file=504701.csv.activities,property=Cached(PUBCHEM_COMPOUND_CID))>
9.265

> <PUBCHEM_ATOM_DEF_STEREO_COUNT>
0

> <PUBCHEM_ATOM_UDEF_STEREO_COUNT>
0

> <PUBCHEM_BONDANNOTATIONS>
10  14  8
10  16  8
11  19  8
12  20  8
13  17  8
14  18  8
15  22  8
16  21  8
17  23  8
18  24  8
19  25  8
20  25  8
21  24  8
22  23  8
8  11  8
8  12  8
9  13  8
9  15  8

> <PUBCHEM_BOND_DEF_STEREO_COUNT>
0

> <PUBCHEM_BOND_UDEF_STEREO_COUNT>
0

> <PUBCHEM_CACTVS_COMPLEXITY>
455

> <PUBCHEM_CACTVS_HBOND_ACCEPTOR>
6

> <PUBCHEM_CACTVS_HBOND_DONOR>
1

> <PUBCHEM_CACTVS_ROTATABLE_BOND>
8

> <PUBCHEM_CACTVS_SUBSKEYS>
AAADceB6OAIAAAAAAAAAAAAAAAAAAAAAAAAwYMAAAAAAAAABUAAAHgAQgCAACAyBkAIyxoBABRCAQCRCQICCCAAgIgAIiAAGbIgMJyKEsZuAMCBl0BUI6AeQYAwAAAAACAAAAAAAAAAQAAAAAAAAAAAAAA==

> <PUBCHEM_CACTVS_TAUTO_COUNT>
2

> <PUBCHEM_CACTVS_TPSA>
66

> <PUBCHEM_COMPONENT_COUNT>
1

> <PUBCHEM_COMPOUND_CANONICALIZED>
1

> <PUBCHEM_COMPOUND_CID>
1588119

> <PUBCHEM_COORDINATE_TYPE>
1
5
255

> <PUBCHEM_EXACT_MASS>
385.107909

> <PUBCHEM_HEAVY_ATOM_COUNT>
27

> <PUBCHEM_ISOTOPIC_ATOM_COUNT>
0

> <PUBCHEM_IUPAC_CAS_NAME>
N-bis(3-methoxyphenoxy)phosphorylaniline

> <PUBCHEM_IUPAC_INCHI>
InChI=1S/C20H20NO5P/c1-23-17-10-6-12-19(14-17)25-27(22,21-16-8-4-3-5-9-16)26-20-13-7-11-18(15-20)24-2/h3-15H,1-2H3,(H,21,22)

> <PUBCHEM_IUPAC_INCHIKEY>
QGSISOQHGKBIQO-UHFFFAOYSA-N

> <PUBCHEM_IUPAC_NAME>
N-bis(3-methoxyphenoxy)phosphorylaniline

> <PUBCHEM_IUPAC_OPENEYE_NAME>
N-bis(3-methoxyphenoxy)phosphorylaniline

> <PUBCHEM_IUPAC_SYSTEMATIC_NAME>
N-bis(3-methoxyphenoxy)phosphorylaniline

> <PUBCHEM_IUPAC_TRADITIONAL_NAME>
bis(3-methoxyphenoxy)phosphoryl-phenyl-amine

> <PUBCHEM_MOLECULAR_FORMULA>
C20H20NO5P

> <PUBCHEM_MOLECULAR_WEIGHT>
385.350262

> <PUBCHEM_MONOISOTOPIC_WEIGHT>
385.107909

> <PUBCHEM_OPENEYE_CAN_SMILES>
COC1=CC(=CC=C1)OP(=O)(NC2=CC=CC=C2)OC3=CC=CC(=C3)OC

> <PUBCHEM_OPENEYE_ISO_SMILES>
COC1=CC(=CC=C1)OP(=O)(NC2=CC=CC=C2)OC3=CC=CC(=C3)OC

> <PUBCHEM_TOTAL_CHARGE>
0

> <PUBCHEM_XLOGP3_AA>
4.9

$$$$
Written by BCL::WriteToMDL,16338637
MBcorina  10171218483D 1   1.00000     0.00000 
CORINA 3.49 0026  01.06.2011
 49 51  0  0  0  0  0  0  0  0999 V2000
   -0.4449    1.7464    0.3938 O   0  0  0  1  0  2  0  0  0  0  0  0
   -2.8783    0.8478    0.6504 O   0  0  0  1  0  1  0  0  0  0  0  0
    0.8919    5.8735    1.4553 O   0  0  0  1  0  1  0  0  0  0  0  0
   -2.4176   -1.3224    0.6665 N   0  0  0  1  0  3  0  0  0  0  0  0
    2.5273    5.4849    0.0074 N   0  0  0  1  0  3  0  0  0  0  0  0
   -3.8340   -1.6675    0.8109 C   0  0  0  1  0  4  0  0  0  0  0  0
   -4.0712   -3.0534    0.2684 C   0  0  0  1  0  3  0  0  0  0  0  0
   -5.1983   -3.3078   -0.4505 C   0  0  0  1  0  3  0  0  0  0  0  0
   -5.4225   -4.5990   -0.9583 C   0  0  0  1  0  3  0  0  0  0  0  0
   -4.4679   -5.6177   -0.7125 C   0  0  0  1  0  3  0  0  0  0  0  0
   -3.1301   -4.0537    0.5057 C   0  0  0  1  0  3  0  0  0  0  0  0
   -4.2208   -1.6260    2.2907 C   0  0  0  1  0  4  0  0  0  0  0  0
   -3.3160   -5.3167    0.0343 C   0  0  0  1  0  3  0  0  0  0  0  0
   -6.5743   -4.9000   -1.7045 C   0  0  0  1  0  3  0  0  0  0  0  0
   -4.6920   -6.9086   -1.2197 C   0  0  0  1  0  3  0  0  0  0  0  0
   -2.0429   -0.0297    0.5951 C   0  0  0  1  0  3  0  0  0  0  0  0
   -0.5859    0.3254    0.4465 C   0  0  0  1  0  4  0  0  0  0  0  0
   -6.7579   -6.1622   -2.1801 C   0  0  0  1  0  3  0  0  0  0  0  0
   -5.8196   -7.1635   -1.9384 C   0  0  0  1  0  3  0  0  0  0  0  0
    0.8154    2.2369    0.2602 C   0  0  0  1  0  3  0  0  0  0  0  0
    1.0243    3.6061    0.2025 C   0  0  0  1  0  3  0  0  0  0  0  0
    2.3125    4.1035    0.0665 C   0  0  0  1  0  3  0  0  0  0  0  0
    1.8945    1.3675    0.1873 C   0  0  0  1  0  3  0  0  0  0  0  0
    3.3886    3.2283   -0.0113 C   0  0  0  1  0  3  0  0  0  0  0  0
    3.1770    1.8649    0.0524 C   0  0  0  1  0  3  0  0  0  0  0  0
    1.7319    6.3210    0.7035 C   0  0  0  1  0  3  0  0  0  0  0  0
    1.8861    7.8120    0.5478 C   0  0  0  1  0  4  0  0  0  0  0  0
   -4.4408   -0.9516    0.2566 H   0  0  0  1  0  1  0  0  0  0  0  0
   -5.9170   -2.5218   -0.6296 H   0  0  0  1  0  1  0  0  0  0  0  0
   -2.2419   -3.8239    1.0755 H   0  0  0  1  0  1  0  0  0  0  0  0
   -3.6140   -2.3420    2.8450 H   0  0  0  1  0  1  0  0  0  0  0  0
   -4.0492   -0.6237    2.6830 H   0  0  0  1  0  1  0  0  0  0  0  0
   -5.2746   -1.8829    2.3981 H   0  0  0  1  0  1  0  0  0  0  0  0
   -1.7495   -2.0241    0.6223 H   0  0  0  1  0  1  0  0  0  0  0  0
   -2.5802   -6.0828    0.2297 H   0  0  0  1  0  1  0  0  0  0  0  0
   -7.3104   -4.1341   -1.8994 H   0  0  0  1  0  1  0  0  0  0  0  0
   -3.9732   -7.6946   -1.0405 H   0  0  0  1  0  1  0  0  0  0  0  0
   -0.1971   -0.1127   -0.4728 H   0  0  0  1  0  1  0  0  0  0  0  0
   -0.0284   -0.0637    1.2985 H   0  0  0  1  0  1  0  0  0  0  0  0
   -7.6442   -6.3910   -2.7533 H   0  0  0  1  0  1  0  0  0  0  0  0
   -5.9895   -8.1567   -2.3271 H   0  0  0  1  0  1  0  0  0  0  0  0
    0.1860    4.2843    0.2628 H   0  0  0  1  0  1  0  0  0  0  0  0
    1.7321    0.3009    0.2364 H   0  0  0  1  0  1  0  0  0  0  0  0
    4.3917    3.6144   -0.1171 H   0  0  0  1  0  1  0  0  0  0  0  0
    4.0152    1.1861   -0.0038 H   0  0  0  1  0  1  0  0  0  0  0  0
    3.2488    5.8408   -0.5346 H   0  0  0  1  0  1  0  0  0  0  0  0
    2.6057    8.1811    1.2786 H   0  0  0  1  0  1  0  0  0  0  0  0
    2.2412    8.0375   -0.4577 H   0  0  0  1  0  1  0  0  0  0  0  0
    0.9229    8.2958    0.7100 H   0  0  0  1  0  1  0  0  0  0  0  0
  1 17  1  0  0  0  0
  1 20  1  0  0  0  0
  2 16  2  0  0  0  0
  3 26  2  0  0  0  0
  4  6  1  0  0  0  0
  4 16  1  0  0  0  0
  4 34  1  0  0  0  0
  5 22  1  0  0  0  0
  5 26  1  0  0  0  0
  5 46  1  0  0  0  0
  6  7  1  0  0  0  0
  6 12  1  0  0  0  0
  6 28  1  0  0  0  0
  7  8  2  0  0  0  0
  7 11  1  0  0  0  0
  8  9  1  0  0  0  0
  8 29  1  0  0  0  0
  9 10  1  0  0  0  0
  9 14  2  0  0  0  0
 10 13  1  0  0  0  0
 10 15  2  0  0  0  0
 11 13  2  0  0  0  0
 11 30  1  0  0  0  0
 12 31  1  0  0  0  0
 12 32  1  0  0  0  0
 12 33  1  0  0  0  0
 13 35  1  0  0  0  0
 14 18  1  0  0  0  0
 14 36  1  0  0  0  0
 15 19  1  0  0  0  0
 15 37  1  0  0  0  0
 16 17  1  0  0  0  0
 17 38  1  0  0  0  0
 17 39  1  0  0  0  0
 18 19  2  0  0  0  0
 18 40  1  0  0  0  0
 19 41  1  0  0  0  0
 20 21  1  0  0  0  0
 20 23  2  0  0  0  0
 21 22  2  0  0  0  0
 21 42  1  0  0  0  0
 22 24  1  0  0  0  0
 23 25  1  0  0  0  0
 23 43  1  0  0  0  0
 24 25  2  0  0  0  0
 24 44  1  0  0  0  0
 25 45  1  0  0  0  0
 26 27  1  0  0  0  0
 27 47  1  0  0  0  0
 27 48  1  0  0  0  0
 27 49  1  0  0  0  0
M  END
> <Activity>
0.62297

> <Mapped(file=504701.csv.activities,property=Cached(PUBCHEM_COMPOUND_CID))>
0.62297

> <PUBCHEM_ATOM_DEF_STEREO_COUNT>
0

> <PUBCHEM_ATOM_UDEF_STEREO_COUNT>
1

> <PUBCHEM_BONDANNOTATIONS>
10  13  8
10  15  8
11  13  8
14  18  8
15  19  8
18  19  8
20  21  8
20  23  8
21  22  8
22  24  8
23  25  8
24  25  8
6  12  3
7  11  8
7  8  8
8  9  8
9  10  8
9  14  8

> <PUBCHEM_BOND_DEF_STEREO_COUNT>
0

> <PUBCHEM_BOND_UDEF_STEREO_COUNT>
0

> <PUBCHEM_CACTVS_COMPLEXITY>
510

> <PUBCHEM_CACTVS_HBOND_ACCEPTOR>
3

> <PUBCHEM_CACTVS_HBOND_DONOR>
2

> <PUBCHEM_CACTVS_ROTATABLE_BOND>
6

> <PUBCHEM_CACTVS_SUBSKEYS>
AAADceB7MAAAAAAAAAAAAAAAAAAAAAAAAAAwYMAAAAAAAADBVAAAHgAQAAAADCzhmAYyxsLABACIAiVSUAKCCAAhIgAIiIBObIgOJiLEsZ+HOCjm1hnY6AeQ0MMOwAACAgAQAACAAAQEACAAAAAAAAAAAA==

> <PUBCHEM_CACTVS_TAUTO_COUNT>
6

> <PUBCHEM_CACTVS_TPSA>
67.4

> <PUBCHEM_COMPONENT_COUNT>
1

> <PUBCHEM_COMPOUND_CANONICALIZED>
1

> <PUBCHEM_COMPOUND_CID>
16338637

> <PUBCHEM_COORDINATE_TYPE>
1
5
255

> <PUBCHEM_EXACT_MASS>
362.163043

> <PUBCHEM_HEAVY_ATOM_COUNT>
27

> <PUBCHEM_ISOTOPIC_ATOM_COUNT>
0

> <PUBCHEM_IUPAC_CAS_NAME>
2-(3-acetamidophenoxy)-N-[1-(2-naphthalenyl)ethyl]acetamide

> <PUBCHEM_IUPAC_INCHI>
InChI=1S/C22H22N2O3/c1-15(18-11-10-17-6-3-4-7-19(17)12-18)23-22(26)14-27-21-9-5-8-20(13-21)24-16(2)25/h3-13,15H,14H2,1-2H3,(H,23,26)(H,24,25)

> <PUBCHEM_IUPAC_INCHIKEY>
ABSPCBSIRGQAKA-UHFFFAOYSA-N

> <PUBCHEM_IUPAC_NAME>
2-(3-acetamidophenoxy)-N-(1-naphthalen-2-ylethyl)acetamide

> <PUBCHEM_IUPAC_OPENEYE_NAME>
2-(3-acetamidophenoxy)-N-[1-(2-naphthyl)ethyl]acetamide

> <PUBCHEM_IUPAC_SYSTEMATIC_NAME>
2-(3-acetamidophenoxy)-N-(1-naphthalen-2-ylethyl)ethanamide

> <PUBCHEM_IUPAC_TRADITIONAL_NAME>
2-(3-acetamidophenoxy)-N-[1-(2-naphthyl)ethyl]acetamide

> <PUBCHEM_MOLECULAR_FORMULA>
C22H22N2O3

> <PUBCHEM_MOLECULAR_WEIGHT>
362.42168

> <PUBCHEM_MONOISOTOPIC_WEIGHT>
362.163043

> <PUBCHEM_OPENEYE_CAN_SMILES>
CC(C1=CC2=CC=CC=C2C=C1)NC(=O)COC3=CC=CC(=C3)NC(=O)C

> <PUBCHEM_OPENEYE_ISO_SMILES>
CC(C1=CC2=CC=CC=C2C=C1)NC(=O)COC3=CC=CC(=C3)NC(=O)C

> <PUBCHEM_TOTAL_CHARGE>
0

> <PUBCHEM_XLOGP3_AA>
3.6

$$$$
Written by BCL::WriteToMDL,24819406
MBcorina  10171218483D 1   1.00000     0.00000 
CORINA 3.49 0026  01.06.2011
 54 57  0  0  0  0  0  0  0  0999 V2000
   -2.1843    1.5529   -0.3581 O   0  0  0  1  0  1  0  0  0  0  0  0
   -0.0755    1.4389    0.3287 N   0  0  0  1  0  3  0  0  0  0  0  0
    0.5495   -2.0131    1.5854 N   0  0  0  1  0  3  0  0  0  0  0  0
    0.9782    7.9166   -0.9238 N   0  0  0  1  0  3  0  0  0  0  0  0
    1.8898    6.0864   -1.6554 N   0  0  0  1  0  2  0  0  0  0  0  0
    0.4244   -0.5546    1.6441 C   0  0  0  1  0  4  0  0  0  0  0  0
    1.7909    0.0634    1.9488 C   0  0  0  1  0  4  0  0  0  0  0  0
   -0.0797   -0.0299    0.2960 C   0  0  0  1  0  4  0  0  0  0  0  0
    1.6551    1.5848    2.0429 C   0  0  0  1  0  4  0  0  0  0  0  0
    1.1650    2.1337    0.6993 C   0  0  0  1  0  4  0  0  0  0  0  0
   -1.1868    2.1359    0.0193 C   0  0  0  1  0  3  0  0  0  0  0  0
   -0.5612   -2.8202    1.8422 C   0  0  0  1  0  3  0  0  0  0  0  0
   -1.1924    3.6097    0.1389 C   0  0  0  1  0  3  0  0  0  0  0  0
   -0.4444   -4.2030    1.7869 C   0  0  0  1  0  3  0  0  0  0  0  0
   -1.7839   -2.2416    2.1590 C   0  0  0  1  0  3  0  0  0  0  0  0
   -1.5448   -4.9982    2.0414 C   0  0  0  1  0  3  0  0  0  0  0  0
   -0.1813    4.3625   -0.4551 C   0  0  0  1  0  3  0  0  0  0  0  0
   -2.7616   -4.4190    2.3504 C   0  0  0  1  0  3  0  0  0  0  0  0
   -2.2142    4.2507    0.8426 C   0  0  0  1  0  3  0  0  0  0  0  0
   -2.8799   -3.0424    2.4123 C   0  0  0  1  0  3  0  0  0  0  0  0
   -0.1941    5.7501   -0.3375 C   0  0  0  1  0  3  0  0  0  0  0  0
   -1.4190   -6.4988    1.9816 C   0  0  0  1  0  4  0  0  0  0  0  0
   -2.2207    5.6270    0.9552 C   0  0  0  1  0  3  0  0  0  0  0  0
   -1.2186    6.3782    0.3739 C   0  0  0  1  0  3  0  0  0  0  0  0
   -3.9601   -5.2898    2.6269 C   0  0  0  1  0  4  0  0  0  0  0  0
    0.8755    6.5570   -0.9645 C   0  0  0  1  0  3  0  0  0  0  0  0
    2.1052    8.2542   -1.6237 C   0  0  0  1  0  3  0  0  0  0  0  0
    2.6534    7.1048   -2.0676 C   0  0  0  1  0  3  0  0  0  0  0  0
   -0.2815   -0.2813    2.4284 H   0  0  0  1  0  1  0  0  0  0  0  0
    2.1631   -0.3272    2.8959 H   0  0  0  1  0  1  0  0  0  0  0  0
    2.4900   -0.1902    1.1519 H   0  0  0  1  0  1  0  0  0  0  0  0
   -1.0939   -0.3886    0.1204 H   0  0  0  1  0  1  0  0  0  0  0  0
    0.5768   -0.3796   -0.5008 H   0  0  0  1  0  1  0  0  0  0  0  0
    0.9375    1.8385    2.8231 H   0  0  0  1  0  1  0  0  0  0  0  0
    2.6241    2.0224    2.2829 H   0  0  0  1  0  1  0  0  0  0  0  0
    1.9230    1.9606   -0.0646 H   0  0  0  1  0  1  0  0  0  0  0  0
    0.9720    3.2027    0.7898 H   0  0  0  1  0  1  0  0  0  0  0  0
    1.4036   -2.4183    1.3681 H   0  0  0  1  0  1  0  0  0  0  0  0
    0.5056   -4.6561    1.5449 H   0  0  0  1  0  1  0  0  0  0  0  0
   -1.8770   -1.1667    2.2076 H   0  0  0  1  0  1  0  0  0  0  0  0
    0.6090    3.8719   -1.0039 H   0  0  0  1  0  1  0  0  0  0  0  0
   -3.0011    3.6689    1.2994 H   0  0  0  1  0  1  0  0  0  0  0  0
   -3.8306   -2.5933    2.6590 H   0  0  0  1  0  1  0  0  0  0  0  0
   -1.1440   -6.8798    2.9652 H   0  0  0  1  0  1  0  0  0  0  0  0
   -2.3722   -6.9315    1.6779 H   0  0  0  1  0  1  0  0  0  0  0  0
   -0.6498   -6.7704    1.2587 H   0  0  0  1  0  1  0  0  0  0  0  0
   -3.0133    6.1180    1.5002 H   0  0  0  1  0  1  0  0  0  0  0  0
   -1.2296    7.4542    0.4657 H   0  0  0  1  0  1  0  0  0  0  0  0
   -4.0048   -5.5190    3.6916 H   0  0  0  1  0  1  0  0  0  0  0  0
   -4.8675   -4.7639    2.3301 H   0  0  0  1  0  1  0  0  0  0  0  0
   -3.8748   -6.2163    2.0591 H   0  0  0  1  0  1  0  0  0  0  0  0
    0.3664    8.5286   -0.4855 H   0  0  0  1  0  1  0  0  0  0  0  0
    2.4833    9.2521   -1.7896 H   0  0  0  1  0  1  0  0  0  0  0  0
    3.5555    7.0207   -2.6554 H   0  0  0  1  0  1  0  0  0  0  0  0
  1 11  2  0  0  0  0
  2  8  1  0  0  0  0
  2 10  1  0  0  0  0
  2 11  1  0  0  0  0
  3  6  1  0  0  0  0
  3 12  1  0  0  0  0
  3 38  1  0  0  0  0
  4 26  1  0  0  0  0
  4 27  1  0  0  0  0
  4 52  1  0  0  0  0
  5 26  2  0  0  0  0
  5 28  1  0  0  0  0
  6  7  1  0  0  0  0
  6  8  1  0  0  0  0
  6 29  1  0  0  0  0
  7  9  1  0  0  0  0
  7 30  1  0  0  0  0
  7 31  1  0  0  0  0
  8 32  1  0  0  0  0
  8 33  1  0  0  0  0
  9 10  1  0  0  0  0
  9 34  1  0  0  0  0
  9 35  1  0  0  0  0
 10 36  1  0  0  0  0
 10 37  1  0  0  0  0
 11 13  1  0  0  0  0
 12 14  2  0  0  0  0
 12 15  1  0  0  0  0
 13 17  1  0  0  0  0
 13 19  2  0  0  0  0
 14 16  1  0  0  0  0
 14 39  1  0  0  0  0
 15 20  2  0  0  0  0
 15 40  1  0  0  0  0
 16 18  2  0  0  0  0
 16 22  1  0  0  0  0
 17 21  2  0  0  0  0
 17 41  1  0  0  0  0
 18 20  1  0  0  0  0
 18 25  1  0  0  0  0
 19 23  1  0  0  0  0
 19 42  1  0  0  0  0
 20 43  1  0  0  0  0
 21 24  1  0  0  0  0
 21 26  1  0  0  0  0
 22 44  1  0  0  0  0
 22 45  1  0  0  0  0
 22 46  1  0  0  0  0
 23 24  2  0  0  0  0
 23 47  1  0  0  0  0
 24 48  1  0  0  0  0
 25 49  1  0  0  0  0
 25 50  1  0  0  0  0
 25 51  1  0  0  0  0
 27 28  2  0  0  0  0
 27 53  1  0  0  0  0
 28 54  1  0  0  0  0
M  END
> <Activity>
0.1748

> <Mapped(file=504701.csv.activities,property=Cached(PUBCHEM_COMPOUND_CID))>
0.1748

> <PUBCHEM_ATOM_DEF_STEREO_COUNT>
0

> <PUBCHEM_ATOM_UDEF_STEREO_COUNT>
1

> <PUBCHEM_BONDANNOTATIONS>
12  14  8
12  15  8
13  17  8
13  19  8
14  16  8
15  20  8
16  18  8
17  21  8
18  20  8
19  23  8
21  24  8
23  24  8
27  28  8
6  3  3
4  26  8
4  27  8
5  26  8
5  28  8

> <PUBCHEM_BOND_DEF_STEREO_COUNT>
0

> <PUBCHEM_BOND_UDEF_STEREO_COUNT>
0

> <PUBCHEM_CACTVS_COMPLEXITY>
527

> <PUBCHEM_CACTVS_HBOND_ACCEPTOR>
2

> <PUBCHEM_CACTVS_HBOND_DONOR>
2

> <PUBCHEM_CACTVS_ROTATABLE_BOND>
4

> <PUBCHEM_CACTVS_SUBSKEYS>
AAADceB7oAAAAAAAAAAAAAAAAAAAAWAAAAA8YIAAAAAAAAAB0AAAHgAQAAAADCjBmwQ/0JfJkACoAjd3dACCgC21EqAJyaE4dNiIaLLAnZGUIQholgLIyacYicCOiAACQAAQAAAQAASAACAAAAAAAAAAAA==

> <PUBCHEM_CACTVS_TAUTO_COUNT>
1

> <PUBCHEM_CACTVS_TPSA>
61

> <PUBCHEM_COMPONENT_COUNT>
1

> <PUBCHEM_COMPOUND_CANONICALIZED>
1

> <PUBCHEM_COMPOUND_CID>
24819406

> <PUBCHEM_COORDINATE_TYPE>
1
5
255

> <PUBCHEM_EXACT_MASS>
374.210661

> <PUBCHEM_HEAVY_ATOM_COUNT>
28

> <PUBCHEM_ISOTOPIC_ATOM_COUNT>
0

> <PUBCHEM_IUPAC_CAS_NAME>
[3-(3,4-dimethylanilino)-1-piperidinyl]-[3-(1H-imidazol-2-yl)phenyl]methanone

> <PUBCHEM_IUPAC_INCHI>
InChI=1S/C23H26N4O/c1-16-8-9-20(13-17(16)2)26-21-7-4-12-27(15-21)23(28)19-6-3-5-18(14-19)22-24-10-11-25-22/h3,5-6,8-11,13-14,21,26H,4,7,12,15H2,1-2H3,(H,24,25)

> <PUBCHEM_IUPAC_INCHIKEY>
AFEKICQSZHIMRP-UHFFFAOYSA-N

> <PUBCHEM_IUPAC_NAME>
[3-(3,4-dimethylanilino)piperidin-1-yl]-[3-(1H-imidazol-2-yl)phenyl]methanone

> <PUBCHEM_IUPAC_OPENEYE_NAME>
[3-(3,4-dimethylanilino)-1-piperidyl]-[3-(1H-imidazol-2-yl)phenyl]methanone

> <PUBCHEM_IUPAC_SYSTEMATIC_NAME>
[3-[(3,4-dimethylphenyl)amino]piperidin-1-yl]-[3-(1H-imidazol-2-yl)phenyl]methanone

> <PUBCHEM_IUPAC_TRADITIONAL_NAME>
[3-(3,4-dimethylanilino)piperidino]-[3-(1H-imidazol-2-yl)phenyl]methanone

> <PUBCHEM_MOLECULAR_FORMULA>
C23H26N4O

> <PUBCHEM_MOLECULAR_WEIGHT>
374.47874

> <PUBCHEM_MONOISOTOPIC_WEIGHT>
374.210661

> <PUBCHEM_OPENEYE_CAN_SMILES>
CC1=C(C=C(C=C1)NC2CCCN(C2)C(=O)C3=CC=CC(=C3)C4=NC=CN4)C

> <PUBCHEM_OPENEYE_ISO_SMILES>
CC1=C(C=C(C=C1)NC2CCCN(C2)C(=O)C3=CC=CC(=C3)C4=NC=CN4)C

> <PUBCHEM_TOTAL_CHARGE>
0

> <PUBCHEM_XLOGP3_AA>
4.1

$$$$
Largest component of Written by BCL::WriteToMDL,12006251
MBcorina  10171218483D 1   1.00000     0.00000 
CORINA 3.49 0026  01.06.2011
 43 46  0  0  0  0  0  0  0  0999 V2000
    6.0029   12.9402   14.8752 O   0  0  0  1  0  2  0  0  0  0  0  0
    8.1217   11.5972   13.6125 N   0  0  0  1  0  3  0  0  0  0  0  0
   12.3267   10.1316    9.0217 N   0  0  0  1  0  2  0  0  0  0  0  0
    6.7688   11.0221   13.6230 C   0  0  0  1  0  4  0  0  0  0  0  0
    8.0635   13.0661   13.6216 C   0  0  0  1  0  4  0  0  0  0  0  0
    6.0223   11.5102   14.8674 C   0  0  0  1  0  4  0  0  0  0  0  0
    7.3041   13.5337   14.8660 C   0  0  0  1  0  4  0  0  0  0  0  0
    8.8534   11.1329   12.5205 C   0  0  0  1  0  3  0  0  0  0  0  0
   10.1630   11.5607   12.3298 C   0  0  0  1  0  3  0  0  0  0  0  0
    8.2746   10.2383   11.6266 C   0  0  0  1  0  3  0  0  0  0  0  0
   10.3078   10.2099   10.3503 C   0  0  0  1  0  3  0  0  0  0  0  0
   10.8881   11.1032   11.2512 C   0  0  0  1  0  3  0  0  0  0  0  0
    8.9960    9.7778   10.5468 C   0  0  0  1  0  3  0  0  0  0  0  0
   11.0854    9.7166    9.1897 C   0  0  0  1  0  3  0  0  0  0  0  0
   11.1887    8.3569    7.2212 C   0  0  0  1  0  3  0  0  0  0  0  0
   12.5140    8.8053    7.0491 C   0  0  0  1  0  3  0  0  0  0  0  0
   10.4847    8.8179    8.2929 C   0  0  0  1  0  3  0  0  0  0  0  0
   13.0638    9.7127    7.9891 C   0  0  0  1  0  3  0  0  0  0  0  0
   13.2947    8.3707    5.9672 C   0  0  0  1  0  3  0  0  0  0  0  0
   10.5665    7.3919    6.2452 C   0  0  0  1  0  4  0  0  0  0  0  0
   14.3860   10.1586    7.8161 C   0  0  0  1  0  3  0  0  0  0  0  0
   14.5724    8.8238    5.8331 C   0  0  0  1  0  3  0  0  0  0  0  0
   15.1150    9.7155    6.7553 C   0  0  0  1  0  3  0  0  0  0  0  0
    9.0756   13.4704   13.6396 H   0  0  0  1  0  1  0  0  0  0  0  0
    7.5472   13.4155   12.7274 H   0  0  0  1  0  1  0  0  0  0  0  0
    6.2318   11.3388   12.7289 H   0  0  0  1  0  1  0  0  0  0  0  0
    6.8357    9.9344   13.6420 H   0  0  0  1  0  1  0  0  0  0  0  0
    7.2088   14.6194   14.8477 H   0  0  0  1  0  1  0  0  0  0  0  0
    7.8488   13.2305   15.7601 H   0  0  0  1  0  1  0  0  0  0  0  0
    6.5297   11.1481   15.7615 H   0  0  0  1  0  1  0  0  0  0  0  0
    5.0000   11.1324   14.8501 H   0  0  0  1  0  1  0  0  0  0  0  0
   10.6118   12.2522   13.0274 H   0  0  0  1  0  1  0  0  0  0  0  0
    7.2590    9.9041   11.7792 H   0  0  0  1  0  1  0  0  0  0  0  0
   11.9048   11.4362   11.1031 H   0  0  0  1  0  1  0  0  0  0  0  0
    8.5461    9.0831    9.8530 H   0  0  0  1  0  1  0  0  0  0  0  0
    9.4672    8.4928    8.4525 H   0  0  0  1  0  1  0  0  0  0  0  0
   12.8853    7.6794    5.2455 H   0  0  0  1  0  1  0  0  0  0  0  0
   10.7567    6.3700    6.5733 H   0  0  0  1  0  1  0  0  0  0  0  0
    9.4912    7.5645    6.1990 H   0  0  0  1  0  1  0  0  0  0  0  0
   11.0015    7.5432    5.2573 H   0  0  0  1  0  1  0  0  0  0  0  0
   14.8215   10.8502    8.5220 H   0  0  0  1  0  1  0  0  0  0  0  0
   15.1721    8.4881    5.0000 H   0  0  0  1  0  1  0  0  0  0  0  0
   16.1301   10.0611    6.6265 H   0  0  0  1  0  1  0  0  0  0  0  0
  1  6  1  0  0  0  0
  1  7  1  0  0  0  0
  2  4  1  0  0  0  0
  2  5  1  0  0  0  0
  2  8  1  0  0  0  0
  3 14  2  0  0  0  0
  3 18  1  0  0  0  0
  4  6  1  0  0  0  0
  4 26  1  0  0  0  0
  4 27  1  0  0  0  0
  5  7  1  0  0  0  0
  5 24  1  0  0  0  0
  5 25  1  0  0  0  0
  6 30  1  0  0  0  0
  6 31  1  0  0  0  0
  7 28  1  0  0  0  0
  7 29  1  0  0  0  0
  8  9  2  0  0  0  0
  8 10  1  0  0  0  0
  9 12  1  0  0  0  0
  9 32  1  0  0  0  0
 10 13  2  0  0  0  0
 10 33  1  0  0  0  0
 11 12  2  0  0  0  0
 11 13  1  0  0  0  0
 11 14  1  0  0  0  0
 12 34  1  0  0  0  0
 13 35  1  0  0  0  0
 14 17  1  0  0  0  0
 15 16  1  0  0  0  0
 15 17  2  0  0  0  0
 15 20  1  0  0  0  0
 16 18  1  0  0  0  0
 16 19  2  0  0  0  0
 17 36  1  0  0  0  0
 18 21  2  0  0  0  0
 19 22  1  0  0  0  0
 19 37  1  0  0  0  0
 20 38  1  0  0  0  0
 20 39  1  0  0  0  0
 20 40  1  0  0  0  0
 21 23  1  0  0  0  0
 21 41  1  0  0  0  0
 22 23  2  0  0  0  0
 22 42  1  0  0  0  0
 23 43  1  0  0  0  0
M  END
> <Activity>
2.369

> <Mapped(file=504701.csv.activities,property=Cached(PUBCHEM_COMPOUND_CID))>
2.369

> <PUBCHEM_ATOM_DEF_STEREO_COUNT>
0

> <PUBCHEM_ATOM_UDEF_STEREO_COUNT>
0

> <PUBCHEM_BONDANNOTATIONS>
10  13  8
11  14  8
12  13  8
12  14  8
15  18  8
16  17  8
16  18  8
17  19  8
17  20  8
19  22  8
20  23  8
22  24  8
23  24  8
4  15  8
4  19  8
9  10  8
9  11  8

> <PUBCHEM_BOND_DEF_STEREO_COUNT>
0

> <PUBCHEM_BOND_UDEF_STEREO_COUNT>
0

> <PUBCHEM_CACTVS_COMPLEXITY>
374

> <PUBCHEM_CACTVS_HBOND_ACCEPTOR>
3

> <PUBCHEM_CACTVS_HBOND_DONOR>
1

> <PUBCHEM_CACTVS_ROTATABLE_BOND>
2

> <PUBCHEM_CACTVS_SUBSKEYS>
AAADceB7IAAEAAAAAAAAAAAAAAAAAAAAAAA8eIEAAAAAAACx9AAAHgAAAAAADAjhngYywPMIFACgAyRiRACCgCAhAiAImCA4ZJgKIOLAkZGHIAhggADYyAcQgMAOiAAAAAACAAAQAAAAAAQAAAAAAAAAAA==

> <PUBCHEM_CACTVS_TAUTO_COUNT>
1

> <PUBCHEM_CACTVS_TPSA>
25.4

> <PUBCHEM_COMPONENT_COUNT>
2

> <PUBCHEM_COMPOUND_CANONICALIZED>
1

> <PUBCHEM_COMPOUND_CID>
12006251

> <PUBCHEM_COORDINATE_TYPE>
1
5
255

> <PUBCHEM_EXACT_MASS>
340.134241

> <PUBCHEM_HEAVY_ATOM_COUNT>
24

> <PUBCHEM_ISOTOPIC_ATOM_COUNT>
0

> <PUBCHEM_IUPAC_CAS_NAME>
4-[4-(4-methyl-2-quinolinyl)phenyl]morpholine hydrochloride

> <PUBCHEM_IUPAC_INCHI>
InChI=1S/C20H20N2O.ClH/c1-15-14-20(21-19-5-3-2-4-18(15)19)16-6-8-17(9-7-16)22-10-12-23-13-11-22;/h2-9,14H,10-13H2,1H3;1H

> <PUBCHEM_IUPAC_INCHIKEY>
WWIVBRNQHDBBKB-UHFFFAOYSA-N

> <PUBCHEM_IUPAC_NAME>
4-[4-(4-methylquinolin-2-yl)phenyl]morpholine hydrochloride

> <PUBCHEM_IUPAC_OPENEYE_NAME>
4-[4-(4-methyl-2-quinolyl)phenyl]morpholine hydrochloride

> <PUBCHEM_IUPAC_SYSTEMATIC_NAME>
4-[4-(4-methylquinolin-2-yl)phenyl]morpholine hydrochloride

> <PUBCHEM_IUPAC_TRADITIONAL_NAME>
4-[4-(4-methyl-2-quinolyl)phenyl]morpholine hydrochloride

> <PUBCHEM_MOLECULAR_FORMULA>
C20H21ClN2O

> <PUBCHEM_MOLECULAR_WEIGHT>
340.84654

> <PUBCHEM_MONOISOTOPIC_WEIGHT>
340.134241

> <PUBCHEM_OPENEYE_CAN_SMILES>
CC1=CC(=NC2=CC=CC=C12)C3=CC=C(C=C3)N4CCOCC4.Cl

> <PUBCHEM_OPENEYE_ISO_SMILES>
CC1=CC(=NC2=CC=CC=C12)C3=CC=C(C=C3)N4CCOCC4.Cl

> <PUBCHEM_TOTAL_CHARGE>
0

$$$$
Written by BCL::WriteToMDL,6223700
MBcorina  10171218483D 1   1.00000     0.00000 
CORINA 3.49 0026  01.06.2011
 52 55  0  0  0  0  0  0  0  0999 V2000
   -0.0218    1.7547    0.0117 S   0  0  0  1  0  2  0  0  0  0  0  0
   -7.7459    0.6716    1.2491 O   0  0  0  1  0  2  0  0  0  0  0  0
   -7.7158    0.6438   -0.9701 O   0  0  0  1  0  1  0  0  0  0  0  0
   -7.9987    2.3666    3.2265 O   0  0  0  1  0  1  0  0  0  0  0  0
   -8.9594    4.0947    4.4676 O   0  0  0  1  0  1  0  0  0  0  0  0
   -3.8825   -2.3797    0.0261 N   0  0  0  1  0  2  0  0  0  0  0  0
   -9.8469    3.3939    2.5564 N   0  0  0  1  0  3  0  0  0  0  0  0
  -10.8098    5.1222    3.7954 N   0  0  0  1  0  3  0  0  0  0  0  0
   -4.2579    1.2509    0.0509 C   0  0  0  1  0  4  0  0  0  0  0  0
   -4.7698   -0.1685    0.0478 C   0  0  0  1  0  3  0  0  0  0  0  0
   -2.7265    1.1550    0.0354 C   0  0  0  1  0  4  0  0  0  0  0  0
   -3.6860   -1.0639    0.0321 C   0  0  0  1  0  3  0  0  0  0  0  0
   -2.4141   -0.3206    0.0239 C   0  0  0  1  0  3  0  0  0  0  0  0
   -6.0687   -0.6541    0.0578 C   0  0  0  1  0  3  0  0  0  0  0  0
   -6.2485   -2.1068    0.0504 C   0  0  0  1  0  3  0  0  0  0  0  0
   -5.0945   -2.9302    0.0344 C   0  0  0  1  0  3  0  0  0  0  0  0
   -1.1798   -0.8668    0.0087 C   0  0  0  1  0  3  0  0  0  0  0  0
   -7.2287    0.2614    0.0748 C   0  0  0  1  0  3  0  0  0  0  0  0
   -7.5195   -2.6876    0.0592 C   0  0  0  1  0  3  0  0  0  0  0  0
   -5.2581   -4.3281    0.0272 C   0  0  0  1  0  3  0  0  0  0  0  0
    0.0021   -0.0041    0.0020 C   0  0  0  1  0  3  0  0  0  0  0  0
   -7.6395   -4.0469    0.0515 C   0  0  0  1  0  3  0  0  0  0  0  0
   -6.5106   -4.8617    0.0355 C   0  0  0  1  0  3  0  0  0  0  0  0
   -8.8848    1.5703    1.1898 C   0  0  0  1  0  4  0  0  0  0  0  0
    1.2970   -0.4379   -0.0127 C   0  0  0  1  0  3  0  0  0  0  0  0
  -10.1785    0.7536    1.1710 C   0  0  0  1  0  4  0  0  0  0  0  0
   -8.8772    2.4714    2.3976 C   0  0  0  1  0  3  0  0  0  0  0  0
    2.2337    0.5695   -0.0162 C   0  0  0  1  0  3  0  0  0  0  0  0
    1.7354    1.8118   -0.0048 C   0  0  0  1  0  3  0  0  0  0  0  0
   -9.8400    4.1998    3.6366 C   0  0  0  1  0  3  0  0  0  0  0  0
  -10.8023    5.9982    4.9696 C   0  0  0  1  0  4  0  0  0  0  0  0
   -4.6093    1.7778   -0.8362 H   0  0  0  1  0  1  0  0  0  0  0  0
   -4.5918    1.7675    0.9508 H   0  0  0  1  0  1  0  0  0  0  0  0
   -2.3280    1.6317   -0.8602 H   0  0  0  1  0  1  0  0  0  0  0  0
   -2.3105    1.6215    0.9284 H   0  0  0  1  0  1  0  0  0  0  0  0
   -1.0645   -1.9406    0.0014 H   0  0  0  1  0  1  0  0  0  0  0  0
   -8.4014   -2.0644    0.0723 H   0  0  0  1  0  1  0  0  0  0  0  0
   -4.3934   -4.9750    0.0146 H   0  0  0  1  0  1  0  0  0  0  0  0
   -8.6217   -4.4960    0.0582 H   0  0  0  1  0  1  0  0  0  0  0  0
   -6.6305   -5.9351    0.0299 H   0  0  0  1  0  1  0  0  0  0  0  0
   -8.8238    2.1750    0.2849 H   0  0  0  1  0  1  0  0  0  0  0  0
    1.5634   -1.4845   -0.0205 H   0  0  0  1  0  1  0  0  0  0  0  0
  -10.1840    0.1018    0.2973 H   0  0  0  1  0  1  0  0  0  0  0  0
  -10.2396    0.1489    2.0758 H   0  0  0  1  0  1  0  0  0  0  0  0
  -11.0335    1.4282    1.1264 H   0  0  0  1  0  1  0  0  0  0  0  0
    3.2955    0.3722   -0.0271 H   0  0  0  1  0  1  0  0  0  0  0  0
    2.3259    2.7161   -0.0056 H   0  0  0  1  0  1  0  0  0  0  0  0
  -10.5498    3.4777    1.8932 H   0  0  0  1  0  1  0  0  0  0  0  0
  -11.5127    5.2060    3.1322 H   0  0  0  1  0  1  0  0  0  0  0  0
  -11.6573    6.6728    4.9251 H   0  0  0  1  0  1  0  0  0  0  0  0
  -10.8634    5.3935    5.8745 H   0  0  0  1  0  1  0  0  0  0  0  0
   -9.8807    6.5800    4.9830 H   0  0  0  1  0  1  0  0  0  0  0  0
  1 21  1  0  0  0  0
  1 29  1  0  0  0  0
  2 18  1  0  0  0  0
  2 24  1  0  0  0  0
  3 18  2  0  0  0  0
  4 27  2  0  0  0  0
  5 30  2  0  0  0  0
  6 12  2  0  0  0  0
  6 16  1  0  0  0  0
  7 27  1  0  0  0  0
  7 30  1  0  0  0  0
  7 48  1  0  0  0  0
  8 30  1  0  0  0  0
  8 31  1  0  0  0  0
  8 49  1  0  0  0  0
  9 10  1  0  0  0  0
  9 11  1  0  0  0  0
  9 32  1  0  0  0  0
  9 33  1  0  0  0  0
 10 12  1  0  0  0  0
 10 14  2  0  0  0  0
 11 13  1  0  0  0  0
 11 34  1  0  0  0  0
 11 35  1  0  0  0  0
 12 13  1  0  0  0  0
 13 17  2  0  0  0  0
 14 15  1  0  0  0  0
 14 18  1  0  0  0  0
 15 16  1  0  0  0  0
 15 19  2  0  0  0  0
 16 20  2  0  0  0  0
 17 21  1  0  0  0  0
 17 36  1  0  0  0  0
 19 22  1  0  0  0  0
 19 37  1  0  0  0  0
 20 23  1  0  0  0  0
 20 38  1  0  0  0  0
 21 25  2  0  0  0  0
 22 23  2  0  0  0  0
 22 39  1  0  0  0  0
 23 40  1  0  0  0  0
 24 26  1  0  0  0  0
 24 27  1  0  0  0  0
 24 41  1  0  0  0  0
 25 28  1  0  0  0  0
 25 42  1  0  0  0  0
 26 43  1  0  0  0  0
 26 44  1  0  0  0  0
 26 45  1  0  0  0  0
 28 29  2  0  0  0  0
 28 46  1  0  0  0  0
 29 47  1  0  0  0  0
 31 50  1  0  0  0  0
 31 51  1  0  0  0  0
 31 52  1  0  0  0  0
M  END
> <Activity>
4.117

> <Mapped(file=504701.csv.activities,property=Cached(PUBCHEM_COMPOUND_CID))>
4.117

> <PUBCHEM_ATOM_DEF_STEREO_COUNT>
0

> <PUBCHEM_ATOM_UDEF_STEREO_COUNT>
1

> <PUBCHEM_BONDANNOTATIONS>
1  21  8
1  29  8
10  12  8
10  14  8
14  15  8
15  16  8
15  19  8
16  20  8
19  22  8
20  23  8
21  25  8
22  23  8
24  26  3
25  28  8
28  29  8
6  12  8
6  16  8

> <PUBCHEM_BOND_DEF_STEREO_COUNT>
1

> <PUBCHEM_BOND_UDEF_STEREO_COUNT>
0

> <PUBCHEM_CACTVS_COMPLEXITY>
742

> <PUBCHEM_CACTVS_HBOND_ACCEPTOR>
6

> <PUBCHEM_CACTVS_HBOND_DONOR>
2

> <PUBCHEM_CACTVS_ROTATABLE_BOND>
5

> <PUBCHEM_CACTVS_SUBSKEYS>
AAADceB7OABAAAAAAAAAAAAAAAAAAaIAAAA8QAAAAAAAAFix/AAAHgQQAAAADByl3gazyfLIFAisAyXyXAKDgKAlCjBImLl4bNiKJvLgtZ2HMQhs1yP46Qe8yOCOgAAAAAACAAAAAAAAAAQAAAAAAQAAAA==

> <PUBCHEM_CACTVS_TAUTO_COUNT>
5

> <PUBCHEM_CACTVS_TPSA>
126

> <PUBCHEM_COMPONENT_COUNT>
1

> <PUBCHEM_COMPOUND_CANONICALIZED>
1

> <PUBCHEM_COMPOUND_CID>
6223700

> <PUBCHEM_COORDINATE_TYPE>
1
5
255

> <PUBCHEM_EXACT_MASS>
435.125277

> <PUBCHEM_HEAVY_ATOM_COUNT>
31

> <PUBCHEM_ISOTOPIC_ATOM_COUNT>
0

> <PUBCHEM_IUPAC_CAS_NAME>
(3E)-3-(thiophen-2-ylmethylidene)-1,2-dihydrocyclopenta[b]quinoline-9-carboxylic acid [1-(methylcarbamoylamino)-1-oxopropan-2-yl] ester

> <PUBCHEM_IUPAC_INCHI>
InChI=1S/C23H21N3O4S/c1-13(21(27)26-23(29)24-2)30-22(28)19-16-7-3-4-8-18(16)25-20-14(9-10-17(19)20)12-15-6-5-11-31-15/h3-8,11-13H,9-10H2,1-2H3,(H2,24,26,27,29)/b14-12+

> <PUBCHEM_IUPAC_INCHIKEY>
PVBRULDDFBPVHE-WYMLVPIESA-N

> <PUBCHEM_IUPAC_NAME>
[1-(methylcarbamoylamino)-1-oxopropan-2-yl] (3E)-3-(thiophen-2-ylmethylidene)-1,2-dihydrocyclopenta[b]quinoline-9-carboxylate

> <PUBCHEM_IUPAC_OPENEYE_NAME>
[1-methyl-2-(methylcarbamoylamino)-2-oxo-ethyl] (3E)-3-(2-thienylmethylene)-1,2-dihydrocyclopenta[b]quinoline-9-carboxylate

> <PUBCHEM_IUPAC_SYSTEMATIC_NAME>
[1-(methylcarbamoylamino)-1-oxidanylidene-propan-2-yl] (3E)-3-(thiophen-2-ylmethylidene)-1,2-dihydrocyclopenta[b]quinoline-9-carboxylate

> <PUBCHEM_IUPAC_TRADITIONAL_NAME>
(3E)-3-(2-thenylidene)-1,2-dihydrocyclopenta[b]quinoline-9-carboxylic acid [2-keto-1-methyl-2-(methylcarbamoylamino)ethyl] ester

> <PUBCHEM_MOLECULAR_FORMULA>
C23H21N3O4S

> <PUBCHEM_MOLECULAR_WEIGHT>
435.49554

> <PUBCHEM_MONOISOTOPIC_WEIGHT>
435.125277

> <PUBCHEM_OPENEYE_CAN_SMILES>
CC(C(=O)NC(=O)NC)OC(=O)C1=C2CCC(=CC3=CC=CS3)C2=NC4=CC=CC=C41

> <PUBCHEM_OPENEYE_ISO_SMILES>
CC(C(=O)NC(=O)NC)OC(=O)C1=C2CC/C(=C\C3=CC=CS3)/C2=NC4=CC=CC=C41

> <PUBCHEM_TOTAL_CHARGE>
0

> <PUBCHEM_XLOGP3_AA>
3.9

$$$$
Written by BCL::WriteToMDL,3555442
MBcorina  10171218483D 1   1.00000     0.00000 
CORINA 3.49 0026  01.06.2011
 26 28  0  0  0  0  0  0  0  0999 V2000
   -0.0218    1.7547    0.0117 S   0  0  0  1  0  2  0  0  0  0  0  0
   -1.9622   -4.3613   -0.0048 N   0  0  0  1  0  3  0  0  0  0  0  0
   -1.0627   -2.1998   -0.0005 N   0  0  0  1  0  2  0  0  0  0  0  0
   -3.3571   -2.4793    0.0187 N   0  0  0  1  0  2  0  0  0  0  0  0
   -5.4959   -4.8038    0.0259 N   0  0  0  1  0  1  0  0  0  0  0  0
   -2.1311   -2.9785    0.0047 C   0  0  0  1  0  3  0  0  0  0  0  0
   -1.1906   -0.8724    0.0083 C   0  0  0  1  0  3  0  0  0  0  0  0
   -2.9758   -5.2965   -0.0010 C   0  0  0  1  0  3  0  0  0  0  0  0
    0.0021   -0.0041    0.0020 C   0  0  0  1  0  3  0  0  0  0  0  0
   -0.7688   -5.0165   -0.0253 C   0  0  0  1  0  3  0  0  0  0  0  0
   -2.3896   -6.5436   -0.0135 C   0  0  0  1  0  3  0  0  0  0  0  0
   -1.0026   -6.3488   -0.0287 C   0  0  0  1  0  3  0  0  0  0  0  0
   -2.4766   -0.3159    0.0231 C   0  0  0  1  0  3  0  0  0  0  0  0
    1.2807   -0.4361   -0.0125 C   0  0  0  1  0  3  0  0  0  0  0  0
   -3.5621   -1.1705    0.0281 C   0  0  0  1  0  3  0  0  0  0  0  0
    2.2269    0.5649   -0.0162 C   0  0  0  1  0  3  0  0  0  0  0  0
    1.7359    1.8093   -0.0048 C   0  0  0  1  0  3  0  0  0  0  0  0
   -4.3811   -5.0218    0.0140 C   0  0  0  1  0  2  0  0  0  0  0  0
    0.2047   -4.5491   -0.0375 H   0  0  0  1  0  1  0  0  0  0  0  0
   -2.9036   -7.4935   -0.0143 H   0  0  0  1  0  1  0  0  0  0  0  0
   -0.2522   -7.1254   -0.0435 H   0  0  0  1  0  1  0  0  0  0  0  0
   -2.6158    0.7550    0.0309 H   0  0  0  1  0  1  0  0  0  0  0  0
    1.5415   -1.4841   -0.0203 H   0  0  0  1  0  1  0  0  0  0  0  0
   -4.5673   -0.7757    0.0398 H   0  0  0  1  0  1  0  0  0  0  0  0
    3.2872    0.3602   -0.0271 H   0  0  0  1  0  1  0  0  0  0  0  0
    2.3295    2.7116   -0.0062 H   0  0  0  1  0  1  0  0  0  0  0  0
  1  9  1  0  0  0  0
  1 17  1  0  0  0  0
  2  6  1  0  0  0  0
  2  8  1  0  0  0  0
  2 10  1  0  0  0  0
  3  6  1  0  0  0  0
  3  7  2  0  0  0  0
  4  6  2  0  0  0  0
  4 15  1  0  0  0  0
  5 18  3  0  0  0  0
  7  9  1  0  0  0  0
  7 13  1  0  0  0  0
  8 11  2  0  0  0  0
  8 18  1  0  0  0  0
  9 14  2  0  0  0  0
 10 12  2  0  0  0  0
 10 19  1  0  0  0  0
 11 12  1  0  0  0  0
 11 20  1  0  0  0  0
 12 21  1  0  0  0  0
 13 15  2  0  0  0  0
 13 22  1  0  0  0  0
 14 16  1  0  0  0  0
 14 23  1  0  0  0  0
 15 24  1  0  0  0  0
 16 17  2  0  0  0  0
 16 25  1  0  0  0  0
 17 26  1  0  0  0  0
M  END
> <Activity>
3.663

> <Mapped(file=504701.csv.activities,property=Cached(PUBCHEM_COMPOUND_CID))>
3.663

> <PUBCHEM_ATOM_DEF_STEREO_COUNT>
0

> <PUBCHEM_ATOM_UDEF_STEREO_COUNT>
0

> <PUBCHEM_BONDANNOTATIONS>
1  17  8
1  9  8
10  12  8
11  12  8
13  15  8
14  16  8
16  17  8
2  10  8
2  8  8
3  6  8
3  7  8
4  15  8
4  6  8
7  13  8
8  11  8
9  14  8

> <PUBCHEM_BOND_DEF_STEREO_COUNT>
0

> <PUBCHEM_BOND_UDEF_STEREO_COUNT>
0

> <PUBCHEM_CACTVS_COMPLEXITY>
339

> <PUBCHEM_CACTVS_HBOND_ACCEPTOR>
2

> <PUBCHEM_CACTVS_HBOND_DONOR>
0

> <PUBCHEM_CACTVS_ROTATABLE_BOND>
2

> <PUBCHEM_CACTVS_SUBSKEYS>
AAADccBzgABAAAAAAAAAAAAAAAAAAWJAAAAsAAAAAAAAAAAB+AAAHAQAAAAACAjFVgS9kZcMEAi0BTRnZACjgKkxCrBJ2Dg4ZJiIqOLg2dGEJAhogALoyC8QgAAAAAAAAAAAAAAAAAAAAAAAAAAAAAAAAA==

> <PUBCHEM_CACTVS_TAUTO_COUNT>
1

> <PUBCHEM_CACTVS_TPSA>
82.7

> <PUBCHEM_COMPONENT_COUNT>
1

> <PUBCHEM_COMPOUND_CANONICALIZED>
1

> <PUBCHEM_COMPOUND_CID>
3555442

> <PUBCHEM_COORDINATE_TYPE>
1
5
255

> <PUBCHEM_EXACT_MASS>
252.046967

> <PUBCHEM_HEAVY_ATOM_COUNT>
18

> <PUBCHEM_ISOTOPIC_ATOM_COUNT>
0

> <PUBCHEM_IUPAC_CAS_NAME>
1-(4-thiophen-2-yl-2-pyrimidinyl)-2-pyrrolecarbonitrile

> <PUBCHEM_IUPAC_INCHI>
InChI=1S/C13H8N4S/c14-9-10-3-1-7-17(10)13-15-6-5-11(16-13)12-4-2-8-18-12/h1-8H

> <PUBCHEM_IUPAC_INCHIKEY>
KCSQDLWGFXTURN-UHFFFAOYSA-N

> <PUBCHEM_IUPAC_NAME>
1-(4-thiophen-2-ylpyrimidin-2-yl)pyrrole-2-carbonitrile

> <PUBCHEM_IUPAC_OPENEYE_NAME>
1-[4-(2-thienyl)pyrimidin-2-yl]pyrrole-2-carbonitrile

> <PUBCHEM_IUPAC_SYSTEMATIC_NAME>
1-(4-thiophen-2-ylpyrimidin-2-yl)pyrrole-2-carbonitrile

> <PUBCHEM_IUPAC_TRADITIONAL_NAME>
1-[4-(2-thienyl)pyrimidin-2-yl]pyrrole-2-carbonitrile

> <PUBCHEM_MOLECULAR_FORMULA>
C13H8N4S

> <PUBCHEM_MOLECULAR_WEIGHT>
252.29442

> <PUBCHEM_MONOISOTOPIC_WEIGHT>
252.046967

> <PUBCHEM_OPENEYE_CAN_SMILES>
C1=CN(C(=C1)C#N)C2=NC=CC(=N2)C3=CC=CS3

> <PUBCHEM_OPENEYE_ISO_SMILES>
C1=CN(C(=C1)C#N)C2=NC=CC(=N2)C3=CC=CS3

> <PUBCHEM_TOTAL_CHARGE>
0

> <PUBCHEM_XLOGP3_AA>
2.4

$$$$
Written by BCL::WriteToMDL,44142309
MBcorina  10171218483D 1   1.00000     0.00000 
CORINA 3.49 0026  01.06.2011
 36 38  0  0  0  0  0  0  0  0999 V2000
   -0.0217    1.7525    0.0117 S   0  0  0  1  0  2  0  0  0  0  0  0
    1.0242   -8.9490   -0.5682 O   0  0  0  1  0  2  0  0  0  0  0  0
    1.7938  -11.4888   -1.2788 O   0  0  0  1  0  2  0  0  0  0  0  0
   -0.5055   -7.6139    0.3897 O   0  0  0  1  0  1  0  0  0  0  0  0
    2.5867  -10.8285   -0.2903 C   0  0  0  1  0  4  0  0  0  0  0  0
    2.2824   -9.3526   -0.3060 C   0  0  0  1  0  3  0  0  0  0  0  0
    2.9720   -7.0466   -0.0562 C   0  0  0  1  0  3  0  0  0  0  0  0
    3.2750   -8.4811   -0.0583 C   0  0  0  1  0  3  0  0  0  0  0  0
    2.2616  -11.4015    1.0906 C   0  0  0  1  0  4  0  0  0  0  0  0
    4.0697  -11.0467   -0.5967 C   0  0  0  1  0  4  0  0  0  0  0  0
    1.6041   -6.6728   -0.0467 C   0  0  0  1  0  3  0  0  0  0  0  0
    0.6184   -7.7661   -0.0508 C   0  0  0  1  0  3  0  0  0  0  0  0
    3.9613   -6.0651   -0.0623 C   0  0  0  1  0  3  0  0  0  0  0  0
    1.2492   -5.3324   -0.0373 C   0  0  0  1  0  3  0  0  0  0  0  0
    2.2558   -4.3656   -0.0417 C   0  0  0  1  0  3  0  0  0  0  0  0
    3.6061   -4.7471   -0.0557 C   0  0  0  1  0  3  0  0  0  0  0  0
    1.9086   -2.9764   -0.0313 C   0  0  0  1  0  2  0  0  0  0  0  0
    1.6239   -1.8374   -0.0229 C   0  0  0  1  0  2  0  0  0  0  0  0
    1.2767   -0.4482   -0.0125 C   0  0  0  1  0  3  0  0  0  0  0  0
    2.2548    0.6109   -0.0162 C   0  0  0  1  0  3  0  0  0  0  0  0
    0.0021   -0.0041    0.0020 C   0  0  0  1  0  3  0  0  0  0  0  0
    1.7325    1.8321   -0.0046 C   0  0  0  1  0  3  0  0  0  0  0  0
    4.2780   -8.8313    0.1360 H   0  0  0  1  0  1  0  0  0  0  0  0
    2.4816  -12.4690    1.1020 H   0  0  0  1  0  1  0  0  0  0  0  0
    2.8664  -10.8978    1.8446 H   0  0  0  1  0  1  0  0  0  0  0  0
    4.3014  -10.6384   -1.5805 H   0  0  0  1  0  1  0  0  0  0  0  0
    4.6745  -10.5430    0.1573 H   0  0  0  1  0  1  0  0  0  0  0  0
    4.2898  -12.1142   -0.5853 H   0  0  0  1  0  1  0  0  0  0  0  0
    1.2050  -11.2460    1.3089 H   0  0  0  1  0  1  0  0  0  0  0  0
    5.0041   -6.3459   -0.0719 H   0  0  0  1  0  1  0  0  0  0  0  0
    0.2094   -5.0408   -0.0273 H   0  0  0  1  0  1  0  0  0  0  0  0
    1.9480  -11.1753   -2.1805 H   0  0  0  1  0  1  0  0  0  0  0  0
    4.3744   -3.9880   -0.0609 H   0  0  0  1  0  1  0  0  0  0  0  0
    3.3191    0.4275   -0.0270 H   0  0  0  1  0  1  0  0  0  0  0  0
   -0.8740   -0.6356    0.0070 H   0  0  0  1  0  1  0  0  0  0  0  0
    2.3067    2.7467   -0.0055 H   0  0  0  1  0  1  0  0  0  0  0  0
  1 21  1  0  0  0  0
  1 22  1  0  0  0  0
  2  6  1  0  0  0  0
  2 12  1  0  0  0  0
  3  5  1  0  0  0  0
  3 32  1  0  0  0  0
  4 12  2  0  0  0  0
  5  6  1  0  0  0  0
  5  9  1  0  0  0  0
  5 10  1  0  0  0  0
  6  8  2  0  0  0  0
  7  8  1  0  0  0  0
  7 11  2  0  0  0  0
  7 13  1  0  0  0  0
  8 23  1  0  0  0  0
  9 24  1  0  0  0  0
  9 25  1  0  0  0  0
  9 29  1  0  0  0  0
 10 26  1  0  0  0  0
 10 27  1  0  0  0  0
 10 28  1  0  0  0  0
 11 12  1  0  0  0  0
 11 14  1  0  0  0  0
 13 16  2  0  0  0  0
 13 30  1  0  0  0  0
 14 15  2  0  0  0  0
 14 31  1  0  0  0  0
 15 16  1  0  0  0  0
 15 17  1  0  0  0  0
 16 33  1  0  0  0  0
 17 18  3  0  0  0  0
 18 19  1  0  0  0  0
 19 20  1  0  0  0  0
 19 21  2  0  0  0  0
 20 22  2  0  0  0  0
 20 34  1  0  0  0  0
 21 35  1  0  0  0  0
 22 36  1  0  0  0  0
M  END
> <Activity>
4.318

> <Mapped(file=504701.csv.activities,property=Cached(PUBCHEM_COMPOUND_CID))>
4.318

> <PUBCHEM_ATOM_DEF_STEREO_COUNT>
0

> <PUBCHEM_ATOM_UDEF_STEREO_COUNT>
0

> <PUBCHEM_BONDANNOTATIONS>
1  21  8
1  22  8
11  12  8
11  14  8
13  16  8
14  15  8
15  16  8
19  20  8
19  21  8
2  12  8
2  6  8
20  22  8
6  8  8
7  11  8
7  13  8
7  8  8

> <PUBCHEM_BOND_DEF_STEREO_COUNT>
0

> <PUBCHEM_BOND_UDEF_STEREO_COUNT>
0

> <PUBCHEM_CACTVS_COMPLEXITY>
551

> <PUBCHEM_CACTVS_HBOND_ACCEPTOR>
4

> <PUBCHEM_CACTVS_HBOND_DONOR>
1

> <PUBCHEM_CACTVS_ROTATABLE_BOND>
3

> <PUBCHEM_CACTVS_SUBSKEYS>
AAADccB4MABAAAAAAAAAAAAAAAAAASAAAAAwQAAAAAAAAACBwAAAGgQACAAADESE2ACyCYAABgjMEiDSCAgDCIAkKBBIiBkACMgJJjKgNRiCMQAkwAEruYeIyOCOwAACAAAQAACAAAQAACAAAAAAAAAAAA==

> <PUBCHEM_CACTVS_TAUTO_COUNT>
1

> <PUBCHEM_CACTVS_TPSA>
74.8

> <PUBCHEM_COMPONENT_COUNT>
1

> <PUBCHEM_COMPOUND_CANONICALIZED>
1

> <PUBCHEM_COMPOUND_CID>
44142309

> <PUBCHEM_COORDINATE_TYPE>
1
5
255

> <PUBCHEM_EXACT_MASS>
310.066365

> <PUBCHEM_HEAVY_ATOM_COUNT>
22

> <PUBCHEM_ISOTOPIC_ATOM_COUNT>
0

> <PUBCHEM_IUPAC_CAS_NAME>
3-(2-hydroxypropan-2-yl)-7-[2-(3-thiophenyl)ethynyl]-2-benzopyran-1-one

> <PUBCHEM_IUPAC_INCHI>
InChI=1S/C18H14O3S/c1-18(2,20)16-10-14-6-5-12(9-15(14)17(19)21-16)3-4-13-7-8-22-11-13/h5-11,20H,1-2H3

> <PUBCHEM_IUPAC_INCHIKEY>
OPZVXHKGDPCTDW-UHFFFAOYSA-N

> <PUBCHEM_IUPAC_NAME>
3-(2-hydroxypropan-2-yl)-7-(2-thiophen-3-ylethynyl)isochromen-1-one

> <PUBCHEM_IUPAC_OPENEYE_NAME>
3-(1-hydroxy-1-methyl-ethyl)-7-[2-(3-thienyl)ethynyl]isochromen-1-one

> <PUBCHEM_IUPAC_SYSTEMATIC_NAME>
3-(2-oxidanylpropan-2-yl)-7-(2-thiophen-3-ylethynyl)isochromen-1-one

> <PUBCHEM_IUPAC_TRADITIONAL_NAME>
3-(1-hydroxy-1-methyl-ethyl)-7-[2-(3-thienyl)ethynyl]isocoumarin

> <PUBCHEM_MOLECULAR_FORMULA>
C18H14O3S

> <PUBCHEM_MOLECULAR_WEIGHT>
310.36696

> <PUBCHEM_MONOISOTOPIC_WEIGHT>
310.066365

> <PUBCHEM_OPENEYE_CAN_SMILES>
CC(C)(C1=CC2=C(C=C(C=C2)C#CC3=CSC=C3)C(=O)O1)O

> <PUBCHEM_OPENEYE_ISO_SMILES>
CC(C)(C1=CC2=C(C=C(C=C2)C#CC3=CSC=C3)C(=O)O1)O

> <PUBCHEM_TOTAL_CHARGE>
0

> <PUBCHEM_XLOGP3_AA>
3.3

$$$$
Written by BCL::WriteToMDL,1896271
MBcorina  10171218483D 1   1.00000     0.00000 
CORINA 3.49 0026  01.06.2011
 34 35  0  0  0  0  0  0  0  0999 V2000
    0.0465    1.8192   -0.1781 S   0  0  0  1  0  2  0  0  0  0  0  0
   -2.7897   -0.4000   -0.5284 S   0  0  0  1  0  2  0  0  0  0  0  0
   -5.1246   -2.3512   -0.1258 S   0  0  0  1  0  1  0  0  0  0  0  0
   -0.4266   -2.4579    1.4574 O   0  0  0  1  0  1  0  0  0  0  0  0
    1.2510   -0.3426    0.1679 N   0  0  0  1  0  3  0  0  0  0  0  0
   -2.5498   -2.4754    0.7806 N   0  0  0  1  0  3  0  0  0  0  0  0
   -0.0466    0.0669    0.0816 C   0  0  0  1  0  3  0  0  0  0  0  0
    2.2073    0.6153    0.0434 C   0  0  0  1  0  3  0  0  0  0  0  0
    1.5983   -1.7491    0.3851 C   0  0  0  1  0  4  0  0  0  0  0  0
    1.8188    1.8674   -0.1510 C   0  0  0  1  0  3  0  0  0  0  0  0
   -1.1935   -0.7182    0.1766 C   0  0  0  1  0  3  0  0  0  0  0  0
   -1.3452   -1.9318    0.8476 C   0  0  0  1  0  3  0  0  0  0  0  0
    3.6703    0.2631    0.1249 C   0  0  0  1  0  4  0  0  0  0  0  0
   -2.8321   -3.7496    1.4460 C   0  0  0  1  0  4  0  0  0  0  0  0
    1.0112   -2.5995   -0.7433 C   0  0  0  1  0  4  0  0  0  0  0  0
    2.6996    3.0792   -0.3153 C   0  0  0  1  0  4  0  0  0  0  0  0
   -3.5061   -1.8376    0.0928 C   0  0  0  1  0  3  0  0  0  0  0  0
   -3.3171   -3.4836    2.8725 C   0  0  0  1  0  4  0  0  0  0  0  0
    2.6828   -1.8581    0.3956 H   0  0  0  1  0  1  0  0  0  0  0  0
    1.1905   -2.0808    1.3399 H   0  0  0  1  0  1  0  0  0  0  0  0
    4.0430    0.0262   -0.8717 H   0  0  0  1  0  1  0  0  0  0  0  0
    4.2259    1.1094    0.5289 H   0  0  0  1  0  1  0  0  0  0  0  0
    3.8002   -0.6012    0.7763 H   0  0  0  1  0  1  0  0  0  0  0  0
   -3.6045   -4.2847    0.8935 H   0  0  0  1  0  1  0  0  0  0  0  0
   -1.9243   -4.3522    1.4773 H   0  0  0  1  0  1  0  0  0  0  0  0
   -0.0733   -2.4905   -0.7538 H   0  0  0  1  0  1  0  0  0  0  0  0
    1.4190   -2.2678   -1.6981 H   0  0  0  1  0  1  0  0  0  0  0  0
    1.2696   -3.6460   -0.5817 H   0  0  0  1  0  1  0  0  0  0  0  0
    2.0782    3.9631   -0.4591 H   0  0  0  1  0  1  0  0  0  0  0  0
    3.3120    3.2069    0.5773 H   0  0  0  1  0  1  0  0  0  0  0  0
    3.3455    2.9440   -1.1828 H   0  0  0  1  0  1  0  0  0  0  0  0
   -2.5448   -2.9486    3.4250 H   0  0  0  1  0  1  0  0  0  0  0  0
   -4.2249   -2.8811    2.8412 H   0  0  0  1  0  1  0  0  0  0  0  0
   -3.5272   -4.4317    3.3675 H   0  0  0  1  0  1  0  0  0  0  0  0
  1  7  1  0  0  0  0
  1 10  1  0  0  0  0
  2 11  1  0  0  0  0
  2 17  1  0  0  0  0
  3 17  2  0  0  0  0
  4 12  2  0  0  0  0
  5  7  1  0  0  0  0
  5  8  1  0  0  0  0
  5  9  1  0  0  0  0
  6 12  1  0  0  0  0
  6 14  1  0  0  0  0
  6 17  1  0  0  0  0
  7 11  2  0  0  0  0
  8 10  2  0  0  0  0
  8 13  1  0  0  0  0
  9 15  1  0  0  0  0
  9 19  1  0  0  0  0
  9 20  1  0  0  0  0
 10 16  1  0  0  0  0
 11 12  1  0  0  0  0
 13 21  1  0  0  0  0
 13 22  1  0  0  0  0
 13 23  1  0  0  0  0
 14 18  1  0  0  0  0
 14 24  1  0  0  0  0
 14 25  1  0  0  0  0
 15 26  1  0  0  0  0
 15 27  1  0  0  0  0
 15 28  1  0  0  0  0
 16 29  1  0  0  0  0
 16 30  1  0  0  0  0
 16 31  1  0  0  0  0
 18 32  1  0  0  0  0
 18 33  1  0  0  0  0
 18 34  1  0  0  0  0
M  END
> <Activity>
3.149

> <Mapped(file=504701.csv.activities,property=Cached(PUBCHEM_COMPOUND_CID))>
3.149

> <PUBCHEM_ATOM_DEF_STEREO_COUNT>
0

> <PUBCHEM_ATOM_UDEF_STEREO_COUNT>
0

> <PUBCHEM_BOND_DEF_STEREO_COUNT>
1

> <PUBCHEM_BOND_UDEF_STEREO_COUNT>
0

> <PUBCHEM_CACTVS_COMPLEXITY>
482

> <PUBCHEM_CACTVS_HBOND_ACCEPTOR>
5

> <PUBCHEM_CACTVS_HBOND_DONOR>
0

> <PUBCHEM_CACTVS_ROTATABLE_BOND>
2

> <PUBCHEM_CACTVS_SUBSKEYS>
AAADceBzIABgAAAAAAAAAAAAAAAAAWIAAAAAAAAAAAAAAAAAAAAAHgQAAAAACAjBwAQCAAMAAAiMAAVQUACAAABAABgACAAIAEAAAAAAAAAAAAAABgCAAEAAAAAAAAAAAAAAAAAAAAAAAAAAAAAAAAAAAA==

> <PUBCHEM_CACTVS_TAUTO_COUNT>
1

> <PUBCHEM_CACTVS_TPSA>
106

> <PUBCHEM_COMPONENT_COUNT>
1

> <PUBCHEM_COMPOUND_CANONICALIZED>
1

> <PUBCHEM_COMPOUND_CID>
1896271

> <PUBCHEM_COORDINATE_TYPE>
1
5
255

> <PUBCHEM_EXACT_MASS>
300.042476

> <PUBCHEM_HEAVY_ATOM_COUNT>
18

> <PUBCHEM_ISOTOPIC_ATOM_COUNT>
0

> <PUBCHEM_IUPAC_CAS_NAME>
(5Z)-3-ethyl-5-(3-ethyl-4,5-dimethyl-2-thiazolylidene)-2-sulfanylidene-4-thiazolidinone

> <PUBCHEM_IUPAC_INCHI>
InChI=1S/C12H16N2OS3/c1-5-13-7(3)8(4)17-11(13)9-10(15)14(6-2)12(16)18-9/h5-6H2,1-4H3/b11-9-

> <PUBCHEM_IUPAC_INCHIKEY>
MVYAHKHKRGDCQD-LUAWRHEFSA-N

> <PUBCHEM_IUPAC_NAME>
(5Z)-3-ethyl-5-(3-ethyl-4,5-dimethyl-1,3-thiazol-2-ylidene)-2-sulfanylidene-1,3-thiazolidin-4-one

> <PUBCHEM_IUPAC_OPENEYE_NAME>
(5Z)-3-ethyl-5-(3-ethyl-4,5-dimethyl-thiazol-2-ylidene)-2-thioxo-thiazolidin-4-one

> <PUBCHEM_IUPAC_SYSTEMATIC_NAME>
(5Z)-3-ethyl-5-(3-ethyl-4,5-dimethyl-1,3-thiazol-2-ylidene)-2-sulfanylidene-1,3-thiazolidin-4-one

> <PUBCHEM_IUPAC_TRADITIONAL_NAME>
(5Z)-3-ethyl-5-(3-ethyl-4,5-dimethyl-4-thiazolin-2-ylidene)-2-thioxo-thiazolidin-4-one

> <PUBCHEM_MOLECULAR_FORMULA>
C12H16N2OS3

> <PUBCHEM_MOLECULAR_WEIGHT>
300.46324

> <PUBCHEM_MONOISOTOPIC_WEIGHT>
300.042476

> <PUBCHEM_OPENEYE_CAN_SMILES>
CCN1C(=C(SC1=C2C(=O)N(C(=S)S2)CC)C)C

> <PUBCHEM_OPENEYE_ISO_SMILES>
CCN\1C(=C(S/C1=C\2/C(=O)N(C(=S)S2)CC)C)C

> <PUBCHEM_TOTAL_CHARGE>
0

> <PUBCHEM_XLOGP3_AA>
3.2

$$$$
Written by BCL::WriteToMDL,15990985
MBcorina  10171218483D 1   1.00000     0.00000 
CORINA 3.49 0026  01.06.2011
 55 57  0  0  0  0  0  0  0  0999 V2000
    6.7946    3.3681   -9.5573 Cl  0  0  0  1  0  1  0  0  0  0  0  0
   -0.1982    1.5315    0.1465 S   0  0  0  1  0  4  0  0  0  0  0  0
   -2.7038    2.6283    2.9061 O   0  0  0  1  0  2  0  0  0  0  0  0
   -0.3001    0.1243    0.3151 O   0  0  0  1  0  1  0  0  0  0  0  0
    1.0389    2.2300    0.1734 O   0  0  0  1  0  1  0  0  0  0  0  0
    0.9641    1.6270   -3.1397 O   0  0  0  1  0  1  0  0  0  0  0  0
   -0.9002    1.8797   -1.3124 N   0  0  0  1  0  3  0  0  0  0  0  0
    1.0643    3.7342   -3.8265 N   0  0  0  1  0  3  0  0  0  0  0  0
   -2.0557    3.6469    2.8381 N   0  0  0  1  0  2  0  0  0  0  0  0
   -0.5193    3.0946   -2.0372 C   0  0  0  1  0  4  0  0  0  0  0  0
   -1.2062    2.2566    1.3966 C   0  0  0  1  0  3  0  0  0  0  0  0
   -1.8554    1.0152   -1.8518 C   0  0  0  1  0  3  0  0  0  0  0  0
   -2.2551    1.7007    2.0489 C   0  0  0  1  0  3  0  0  0  0  0  0
   -1.1068    3.5530    1.9519 C   0  0  0  1  0  3  0  0  0  0  0  0
    0.5560    2.7648   -3.0402 C   0  0  0  1  0  3  0  0  0  0  0  0
    2.1096    3.4136   -4.8015 C   0  0  0  1  0  4  0  0  0  0  0  0
   -3.1425    1.4715   -2.1065 C   0  0  0  1  0  3  0  0  0  0  0  0
   -1.5189   -0.3013   -2.1402 C   0  0  0  1  0  3  0  0  0  0  0  0
    2.5074    4.6824   -5.5585 C   0  0  0  1  0  4  0  0  0  0  0  0
   -3.7476   -0.6974   -2.9210 C   0  0  0  1  0  3  0  0  0  0  0  0
   -4.0844    0.6142   -2.6404 C   0  0  0  1  0  3  0  0  0  0  0  0
   -2.4657   -1.1534   -2.6740 C   0  0  0  1  0  3  0  0  0  0  0  0
   -2.8082    0.3130    1.8503 C   0  0  0  1  0  4  0  0  0  0  0  0
   -0.1020    4.6159    1.5891 C   0  0  0  1  0  4  0  0  0  0  0  0
    3.5828    4.3526   -6.5615 C   0  0  0  1  0  3  0  0  0  0  0  0
   -4.7784   -1.6303   -3.5026 C   0  0  0  1  0  4  0  0  0  0  0  0
    3.2374    3.9728   -7.8450 C   0  0  0  1  0  3  0  0  0  0  0  0
    4.9143    4.4355   -6.1992 C   0  0  0  1  0  3  0  0  0  0  0  0
    4.2232    3.6702   -8.7653 C   0  0  0  1  0  3  0  0  0  0  0  0
    5.9010    4.1340   -7.1189 C   0  0  0  1  0  3  0  0  0  0  0  0
    5.5559    3.7479   -8.4019 C   0  0  0  1  0  3  0  0  0  0  0  0
   -1.3897    3.4959   -2.5564 H   0  0  0  1  0  1  0  0  0  0  0  0
   -0.1434    3.8357   -1.3319 H   0  0  0  1  0  1  0  0  0  0  0  0
    2.9800    3.0123   -4.2823 H   0  0  0  1  0  1  0  0  0  0  0  0
    1.7337    2.6725   -5.5069 H   0  0  0  1  0  1  0  0  0  0  0  0
   -3.4064    2.4955   -1.8870 H   0  0  0  1  0  1  0  0  0  0  0  0
   -0.5179   -0.6581   -1.9475 H   0  0  0  1  0  1  0  0  0  0  0  0
    1.6371    5.0836   -6.0777 H   0  0  0  1  0  1  0  0  0  0  0  0
    2.8834    5.4235   -4.8531 H   0  0  0  1  0  1  0  0  0  0  0  0
    0.7379    4.6442   -3.7469 H   0  0  0  1  0  1  0  0  0  0  0  0
   -5.0852    0.9683   -2.8387 H   0  0  0  1  0  1  0  0  0  0  0  0
   -2.2047   -2.1770   -2.8984 H   0  0  0  1  0  1  0  0  0  0  0  0
   -3.6532    0.1592    2.5215 H   0  0  0  1  0  1  0  0  0  0  0  0
   -3.1385    0.1978    0.8180 H   0  0  0  1  0  1  0  0  0  0  0  0
   -2.0329   -0.4217    2.0679 H   0  0  0  1  0  1  0  0  0  0  0  0
    0.7790    4.5145    2.2228 H   0  0  0  1  0  1  0  0  0  0  0  0
    0.1869    4.5013    0.5443 H   0  0  0  1  0  1  0  0  0  0  0  0
   -0.5450    5.6006    1.7376 H   0  0  0  1  0  1  0  0  0  0  0  0
   -4.7418   -1.5792   -4.5908 H   0  0  0  1  0  1  0  0  0  0  0  0
   -4.5690   -2.6500   -3.1795 H   0  0  0  1  0  1  0  0  0  0  0  0
   -5.7699   -1.3364   -3.1582 H   0  0  0  1  0  1  0  0  0  0  0  0
    2.1971    3.9122   -8.1286 H   0  0  0  1  0  1  0  0  0  0  0  0
    5.1836    4.7362   -5.1975 H   0  0  0  1  0  1  0  0  0  0  0  0
    3.9532    3.3728   -9.7679 H   0  0  0  1  0  1  0  0  0  0  0  0
    6.9413    4.1989   -6.8358 H   0  0  0  1  0  1  0  0  0  0  0  0
  1 31  1  0  0  0  0
  2  4  2  0  0  0  0
  2  5  2  0  0  0  0
  2  7  1  0  0  0  0
  2 11  1  0  0  0  0
  3  9  1  0  0  0  0
  3 13  1  0  0  0  0
  6 15  2  0  0  0  0
  7 10  1  0  0  0  0
  7 12  1  0  0  0  0
  8 15  1  0  0  0  0
  8 16  1  0  0  0  0
  8 40  1  0  0  0  0
  9 14  2  0  0  0  0
 10 15  1  0  0  0  0
 10 32  1  0  0  0  0
 10 33  1  0  0  0  0
 11 13  2  0  0  0  0
 11 14  1  0  0  0  0
 12 17  2  0  0  0  0
 12 18  1  0  0  0  0
 13 23  1  0  0  0  0
 14 24  1  0  0  0  0
 16 19  1  0  0  0  0
 16 34  1  0  0  0  0
 16 35  1  0  0  0  0
 17 21  1  0  0  0  0
 17 36  1  0  0  0  0
 18 22  2  0  0  0  0
 18 37  1  0  0  0  0
 19 25  1  0  0  0  0
 19 38  1  0  0  0  0
 19 39  1  0  0  0  0
 20 21  2  0  0  0  0
 20 22  1  0  0  0  0
 20 26  1  0  0  0  0
 21 41  1  0  0  0  0
 22 42  1  0  0  0  0
 23 43  1  0  0  0  0
 23 44  1  0  0  0  0
 23 45  1  0  0  0  0
 24 46  1  0  0  0  0
 24 47  1  0  0  0  0
 24 48  1  0  0  0  0
 25 27  2  0  0  0  0
 25 28  1  0  0  0  0
 26 49  1  0  0  0  0
 26 50  1  0  0  0  0
 26 51  1  0  0  0  0
 27 29  1  0  0  0  0
 27 52  1  0  0  0  0
 28 30  2  0  0  0  0
 28 53  1  0  0  0  0
 29 31  2  0  0  0  0
 29 54  1  0  0  0  0
 30 31  1  0  0  0  0
 30 55  1  0  0  0  0
M  END
> <Activity>
0.58499

> <Mapped(file=504701.csv.activities,property=Cached(PUBCHEM_COMPOUND_CID))>
0.58499

> <PUBCHEM_ATOM_DEF_STEREO_COUNT>
0

> <PUBCHEM_ATOM_UDEF_STEREO_COUNT>
0

> <PUBCHEM_BONDANNOTATIONS>
11  13  8
11  14  8
12  17  8
12  18  8
17  21  8
18  22  8
20  21  8
20  22  8
25  27  8
25  28  8
27  29  8
28  30  8
29  31  8
3  13  8
3  9  8
30  31  8
9  14  8

> <PUBCHEM_BOND_DEF_STEREO_COUNT>
0

> <PUBCHEM_BOND_UDEF_STEREO_COUNT>
0

> <PUBCHEM_CACTVS_COMPLEXITY>
685

> <PUBCHEM_CACTVS_HBOND_ACCEPTOR>
6

> <PUBCHEM_CACTVS_HBOND_DONOR>
1

> <PUBCHEM_CACTVS_ROTATABLE_BOND>
8

> <PUBCHEM_CACTVS_SUBSKEYS>
AAADceB7OABEAAAAAAAAAAAAAAAAAWAAAAAwYAAAAAAAAAAB0AAAHgYUQAAADA7B3iQyxZLQAAKpA6VyUnDCABAlJwAomLe8btoIZjrBk7OUMYhmlhjIyUcQgIAODAAAAAAAAAAYAAAAAAAAAAAAAAAAAA==

> <PUBCHEM_CACTVS_TAUTO_COUNT>
2

> <PUBCHEM_CACTVS_TPSA>
101

> <PUBCHEM_COMPONENT_COUNT>
1

> <PUBCHEM_COMPOUND_CANONICALIZED>
1

> <PUBCHEM_COMPOUND_CID>
15990985

> <PUBCHEM_COORDINATE_TYPE>
1
5
255

> <PUBCHEM_EXACT_MASS>
461.117605

> <PUBCHEM_HEAVY_ATOM_COUNT>
31

> <PUBCHEM_ISOTOPIC_ATOM_COUNT>
0

> <PUBCHEM_IUPAC_CAS_NAME>
N-[2-(4-chlorophenyl)ethyl]-2-[N-[(3,5-dimethyl-4-isoxazolyl)sulfonyl]-4-methylanilino]acetamide

> <PUBCHEM_IUPAC_INCHI>
InChI=1S/C22H24ClN3O4S/c1-15-4-10-20(11-5-15)26(31(28,29)22-16(2)25-30-17(22)3)14-21(27)24-13-12-18-6-8-19(23)9-7-18/h4-11H,12-14H2,1-3H3,(H,24,27)

> <PUBCHEM_IUPAC_INCHIKEY>
HOKCGORGAHWULJ-UHFFFAOYSA-N

> <PUBCHEM_IUPAC_NAME>
N-[2-(4-chlorophenyl)ethyl]-2-[N-[(3,5-dimethyl-1,2-oxazol-4-yl)sulfonyl]-4-methylanilino]acetamide

> <PUBCHEM_IUPAC_OPENEYE_NAME>
N-[2-(4-chlorophenyl)ethyl]-2-(N-(3,5-dimethylisoxazol-4-yl)sulfonyl-4-methyl-anilino)acetamide

> <PUBCHEM_IUPAC_SYSTEMATIC_NAME>
N-[2-(4-chlorophenyl)ethyl]-2-[(3,5-dimethyl-1,2-oxazol-4-yl)sulfonyl-(4-methylphenyl)amino]ethanamide

> <PUBCHEM_IUPAC_TRADITIONAL_NAME>
N-[2-(4-chlorophenyl)ethyl]-2-(N-(3,5-dimethylisoxazol-4-yl)sulfonyl-4-methyl-anilino)acetamide

> <PUBCHEM_MOLECULAR_FORMULA>
C22H24ClN3O4S

> <PUBCHEM_MOLECULAR_WEIGHT>
461.96166

> <PUBCHEM_MONOISOTOPIC_WEIGHT>
461.117605

> <PUBCHEM_OPENEYE_CAN_SMILES>
CC1=CC=C(C=C1)N(CC(=O)NCCC2=CC=C(C=C2)Cl)S(=O)(=O)C3=C(ON=C3C)C

> <PUBCHEM_OPENEYE_ISO_SMILES>
CC1=CC=C(C=C1)N(CC(=O)NCCC2=CC=C(C=C2)Cl)S(=O)(=O)C3=C(ON=C3C)C

> <PUBCHEM_TOTAL_CHARGE>
0

> <PUBCHEM_XLOGP3_AA>
4.2

$$$$
Written by BCL::WriteToMDL,4438402
MBcorina  10171218483D 1   1.00000     0.00000 
CORINA 3.49 0026  01.06.2011
 43 46  0  0  0  0  0  0  0  0999 V2000
   -0.0218    1.7577    0.0117 S   0  0  0  1  0  2  0  0  0  0  0  0
   -3.0730   -3.4908    0.3685 S   0  0  0  1  0  2  0  0  0  0  0  0
    1.0375    4.3440    0.0155 O   0  0  0  1  0  1  0  0  0  0  0  0
   -1.0878   -0.8297    0.0080 N   0  0  0  1  0  3  0  0  0  0  0  0
    0.7282   -2.0071   -0.0200 N   0  0  0  1  0  2  0  0  0  0  0  0
    1.0702   -0.7684   -0.0127 N   0  0  0  1  0  2  0  0  0  0  0  0
   -2.4983   -0.4342    0.0240 C   0  0  0  1  0  4  0  0  0  0  0  0
   -0.5825   -2.1108   -0.0102 C   0  0  0  1  0  3  0  0  0  0  0  0
    0.0021   -0.0041    0.0020 C   0  0  0  1  0  3  0  0  0  0  0  0
    4.8681    5.9948   -0.0122 C   0  0  0  1  0  3  0  0  0  0  0  0
    3.3540    4.1204   -0.0078 C   0  0  0  1  0  3  0  0  0  0  0  0
    5.9624    5.0922   -0.0276 C   0  0  0  1  0  3  0  0  0  0  0  0
    3.5585    5.4933   -0.0024 C   0  0  0  1  0  3  0  0  0  0  0  0
    1.7562    2.0963   -0.0035 C   0  0  0  1  0  4  0  0  0  0  0  0
   -1.3620   -3.3592   -0.0170 C   0  0  0  1  0  3  0  0  0  0  0  0
    1.9840    3.5860    0.0024 C   0  0  0  1  0  3  0  0  0  0  0  0
    4.4503    3.2353   -0.0235 C   0  0  0  1  0  3  0  0  0  0  0  0
   -2.9774   -0.3123    1.4720 C   0  0  0  1  0  4  0  0  0  0  0  0
    5.7226    3.7050   -0.0327 C   0  0  0  1  0  3  0  0  0  0  0  0
    5.1159    7.3793   -0.0130 C   0  0  0  1  0  3  0  0  0  0  0  0
    7.2713    5.6001   -0.0378 C   0  0  0  1  0  3  0  0  0  0  0  0
   -0.8742   -4.5820   -0.3199 C   0  0  0  1  0  3  0  0  0  0  0  0
    6.3989    7.8340   -0.0285 C   0  0  0  1  0  3  0  0  0  0  0  0
    7.4733    6.9471   -0.0330 C   0  0  0  1  0  3  0  0  0  0  0  0
   -1.7994   -5.6022   -0.2568 C   0  0  0  1  0  3  0  0  0  0  0  0
   -3.0337   -5.2272    0.0933 C   0  0  0  1  0  3  0  0  0  0  0  0
   -2.6120    0.5264   -0.4784 H   0  0  0  1  0  1  0  0  0  0  0  0
   -3.0927   -1.1873   -0.4932 H   0  0  0  1  0  1  0  0  0  0  0  0
    2.7164    6.1694    0.0096 H   0  0  0  1  0  1  0  0  0  0  0  0
    2.2177    1.6547    0.8798 H   0  0  0  1  0  1  0  0  0  0  0  0
    2.2007    1.6643   -0.9001 H   0  0  0  1  0  1  0  0  0  0  0  0
    4.2753    2.1696   -0.0279 H   0  0  0  1  0  1  0  0  0  0  0  0
   -2.3829    0.4409    1.9892 H   0  0  0  1  0  1  0  0  0  0  0  0
   -4.0268   -0.0180    1.4839 H   0  0  0  1  0  1  0  0  0  0  0  0
   -2.8637   -1.2729    1.9744 H   0  0  0  1  0  1  0  0  0  0  0  0
    6.5527    3.0141   -0.0444 H   0  0  0  1  0  1  0  0  0  0  0  0
    4.2925    8.0781   -0.0018 H   0  0  0  1  0  1  0  0  0  0  0  0
    8.1146    4.9255   -0.0492 H   0  0  0  1  0  1  0  0  0  0  0  0
    0.1582   -4.7473   -0.5904 H   0  0  0  1  0  1  0  0  0  0  0  0
    6.5867    8.8975   -0.0291 H   0  0  0  1  0  1  0  0  0  0  0  0
    8.4818    7.3335   -0.0409 H   0  0  0  1  0  1  0  0  0  0  0  0
   -1.5456   -6.6291   -0.4746 H   0  0  0  1  0  1  0  0  0  0  0  0
   -3.8797   -5.8911    0.1928 H   0  0  0  1  0  1  0  0  0  0  0  0
  1  9  1  0  0  0  0
  1 14  1  0  0  0  0
  2 15  1  0  0  0  0
  2 26  1  0  0  0  0
  3 16  2  0  0  0  0
  4  7  1  0  0  0  0
  4  8  1  0  0  0  0
  4  9  1  0  0  0  0
  5  6  1  0  0  0  0
  5  8  2  0  0  0  0
  6  9  2  0  0  0  0
  7 18  1  0  0  0  0
  7 27  1  0  0  0  0
  7 28  1  0  0  0  0
  8 15  1  0  0  0  0
 10 12  1  0  0  0  0
 10 13  1  0  0  0  0
 10 20  2  0  0  0  0
 11 13  2  0  0  0  0
 11 16  1  0  0  0  0
 11 17  1  0  0  0  0
 12 19  1  0  0  0  0
 12 21  2  0  0  0  0
 13 29  1  0  0  0  0
 14 16  1  0  0  0  0
 14 30  1  0  0  0  0
 14 31  1  0  0  0  0
 15 22  2  0  0  0  0
 17 19  2  0  0  0  0
 17 32  1  0  0  0  0
 18 33  1  0  0  0  0
 18 34  1  0  0  0  0
 18 35  1  0  0  0  0
 19 36  1  0  0  0  0
 20 23  1  0  0  0  0
 20 37  1  0  0  0  0
 21 24  1  0  0  0  0
 21 38  1  0  0  0  0
 22 25  1  0  0  0  0
 22 39  1  0  0  0  0
 23 24  2  0  0  0  0
 23 40  1  0  0  0  0
 24 41  1  0  0  0  0
 25 26  2  0  0  0  0
 25 42  1  0  0  0  0
 26 43  1  0  0  0  0
M  END
> <Activity>
6.664

> <Mapped(file=504701.csv.activities,property=Cached(PUBCHEM_COMPOUND_CID))>
6.664

> <PUBCHEM_ATOM_DEF_STEREO_COUNT>
0

> <PUBCHEM_ATOM_UDEF_STEREO_COUNT>
0

> <PUBCHEM_BONDANNOTATIONS>
10  12  8
10  13  8
10  20  8
11  13  8
11  17  8
12  19  8
12  21  8
15  22  8
17  19  8
2  15  8
2  26  8
20  23  8
21  24  8
22  25  8
23  24  8
25  26  8
4  8  8
4  9  8
5  6  8
5  8  8
6  9  8

> <PUBCHEM_BOND_DEF_STEREO_COUNT>
0

> <PUBCHEM_BOND_UDEF_STEREO_COUNT>
0

> <PUBCHEM_CACTVS_COMPLEXITY>
492

> <PUBCHEM_CACTVS_HBOND_ACCEPTOR>
3

> <PUBCHEM_CACTVS_HBOND_DONOR>
0

> <PUBCHEM_CACTVS_ROTATABLE_BOND>
6

> <PUBCHEM_CACTVS_SUBSKEYS>
AAADceB7IABgAAAAAAAAAAAAAAAAAWJAAAAwYAAAAAAAAADB9AAAHgQIAAAADATF2wSzEccMEAiuAqJyJACT0ItkCLBdyDkoBNiIKLKgnRGEIQhgiAKoiYcYiMCOwAACAAAQAACAAAQAACAAAAAAAAAAAA==

> <PUBCHEM_CACTVS_TAUTO_COUNT>
2

> <PUBCHEM_CACTVS_TPSA>
101

> <PUBCHEM_COMPONENT_COUNT>
1

> <PUBCHEM_COMPOUND_CANONICALIZED>
1

> <PUBCHEM_COMPOUND_CID>
4438402

> <PUBCHEM_COORDINATE_TYPE>
1
5
255

> <PUBCHEM_EXACT_MASS>
379.081304

> <PUBCHEM_HEAVY_ATOM_COUNT>
26

> <PUBCHEM_ISOTOPIC_ATOM_COUNT>
0

> <PUBCHEM_IUPAC_CAS_NAME>
2-[(4-ethyl-5-thiophen-2-yl-1,2,4-triazol-3-yl)thio]-1-(2-naphthalenyl)ethanone

> <PUBCHEM_IUPAC_INCHI>
InChI=1S/C20H17N3OS2/c1-2-23-19(18-8-5-11-25-18)21-22-20(23)26-13-17(24)16-10-9-14-6-3-4-7-15(14)12-16/h3-12H,2,13H2,1H3

> <PUBCHEM_IUPAC_INCHIKEY>
KHLQGTBTBLCMGX-UHFFFAOYSA-N

> <PUBCHEM_IUPAC_NAME>
2-[(4-ethyl-5-thiophen-2-yl-1,2,4-triazol-3-yl)sulfanyl]-1-naphthalen-2-ylethanone

> <PUBCHEM_IUPAC_OPENEYE_NAME>
2-[[4-ethyl-5-(2-thienyl)-1,2,4-triazol-3-yl]sulfanyl]-1-(2-naphthyl)ethanone

> <PUBCHEM_IUPAC_SYSTEMATIC_NAME>
2-[(4-ethyl-5-thiophen-2-yl-1,2,4-triazol-3-yl)sulfanyl]-1-naphthalen-2-yl-ethanone

> <PUBCHEM_IUPAC_TRADITIONAL_NAME>
2-[[4-ethyl-5-(2-thienyl)-1,2,4-triazol-3-yl]thio]-1-(2-naphthyl)ethanone

> <PUBCHEM_MOLECULAR_FORMULA>
C20H17N3OS2

> <PUBCHEM_MOLECULAR_WEIGHT>
379.49848

> <PUBCHEM_MONOISOTOPIC_WEIGHT>
379.081304

> <PUBCHEM_OPENEYE_CAN_SMILES>
CCN1C(=NN=C1SCC(=O)C2=CC3=CC=CC=C3C=C2)C4=CC=CS4

> <PUBCHEM_OPENEYE_ISO_SMILES>
CCN1C(=NN=C1SCC(=O)C2=CC3=CC=CC=C3C=C2)C4=CC=CS4

> <PUBCHEM_TOTAL_CHARGE>
0

> <PUBCHEM_XLOGP3_AA>
4.6

$$$$
Written by BCL::WriteToMDL,4010113
MBcorina  10171218483D 1   1.00000     0.00000 
CORINA 3.49 0026  01.06.2011
 50 53  0  0  0  0  0  0  0  0999 V2000
    0.0406    1.1257   -0.3763 S   0  0  0  1  0  4  0  0  0  0  0  0
    0.0324   -0.2921   -0.2817 O   0  0  0  1  0  1  0  0  0  0  0  0
    1.2240    1.8838   -0.5859 O   0  0  0  1  0  1  0  0  0  0  0  0
   -3.5307    2.2607   -2.4540 O   0  0  0  1  0  2  0  0  0  0  0  0
   -1.8513   -1.2476    3.1730 O   0  0  0  1  0  1  0  0  0  0  0  0
   -0.9909    1.5179   -1.6110 N   0  0  0  1  0  3  0  0  0  0  0  0
   -2.9597    0.5843    3.7615 N   0  0  0  1  0  3  0  0  0  0  0  0
   -4.5633   -1.0311    5.3930 N   0  0  0  1  0  2  0  0  0  0  0  0
   -0.6785    1.7280    1.1153 C   0  0  0  1  0  3  0  0  0  0  0  0
   -1.5305    0.9220    1.8450 C   0  0  0  1  0  3  0  0  0  0  0  0
   -2.0965    1.3974    3.0208 C   0  0  0  1  0  3  0  0  0  0  0  0
   -1.2969    2.8594   -1.8678 C   0  0  0  1  0  3  0  0  0  0  0  0
   -0.3847    3.0048    1.5571 C   0  0  0  1  0  3  0  0  0  0  0  0
   -1.8034    2.6826    3.4591 C   0  0  0  1  0  3  0  0  0  0  0  0
   -0.9466    3.4813    2.7277 C   0  0  0  1  0  3  0  0  0  0  0  0
   -2.5764    3.2157   -2.2898 C   0  0  0  1  0  3  0  0  0  0  0  0
   -5.1663   -3.1579    6.2844 C   0  0  0  1  0  3  0  0  0  0  0  0
   -3.5979   -1.5927    4.6914 C   0  0  0  1  0  3  0  0  0  0  0  0
   -5.3547   -1.7545    6.1847 C   0  0  0  1  0  3  0  0  0  0  0  0
   -2.7447   -0.7447    3.8254 C   0  0  0  1  0  3  0  0  0  0  0  0
   -0.3293    3.8382   -1.6975 C   0  0  0  1  0  3  0  0  0  0  0  0
   -4.1382   -3.7663    5.5397 C   0  0  0  1  0  3  0  0  0  0  0  0
   -3.3598   -2.9743    4.7462 C   0  0  0  1  0  3  0  0  0  0  0  0
   -2.8736    4.5444   -2.5419 C   0  0  0  1  0  3  0  0  0  0  0  0
   -6.0040   -3.9115    7.1215 C   0  0  0  1  0  3  0  0  0  0  0  0
   -0.6342    5.1627   -1.9514 C   0  0  0  1  0  3  0  0  0  0  0  0
   -6.3828   -1.1481    6.9311 C   0  0  0  1  0  3  0  0  0  0  0  0
   -1.9018    5.5146   -2.3749 C   0  0  0  1  0  3  0  0  0  0  0  0
   -6.9877   -3.2886    7.8277 C   0  0  0  1  0  3  0  0  0  0  0  0
   -7.1754   -1.9107    7.7315 C   0  0  0  1  0  3  0  0  0  0  0  0
   -4.8194    2.6992   -2.8888 C   0  0  0  1  0  4  0  0  0  0  0  0
   -1.7566   -0.0766    1.5013 H   0  0  0  1  0  1  0  0  0  0  0  0
   -1.3831    0.8181   -2.1562 H   0  0  0  1  0  1  0  0  0  0  0  0
    0.2853    3.6313    0.9871 H   0  0  0  1  0  1  0  0  0  0  0  0
   -2.2418    3.0553    4.3730 H   0  0  0  1  0  1  0  0  0  0  0  0
   -0.7151    4.4791    3.0700 H   0  0  0  1  0  1  0  0  0  0  0  0
   -3.7133    0.9767    4.2295 H   0  0  0  1  0  1  0  0  0  0  0  0
    0.6620    3.5659   -1.3663 H   0  0  0  1  0  1  0  0  0  0  0  0
   -3.9702   -4.8318    5.5945 H   0  0  0  1  0  1  0  0  0  0  0  0
   -2.5628   -3.4100    4.1619 H   0  0  0  1  0  1  0  0  0  0  0  0
   -3.8642    4.8232   -2.8694 H   0  0  0  1  0  1  0  0  0  0  0  0
   -5.8698   -4.9800    7.2043 H   0  0  0  1  0  1  0  0  0  0  0  0
    0.1201    5.9241   -1.8184 H   0  0  0  1  0  1  0  0  0  0  0  0
   -6.5415   -0.0816    6.8688 H   0  0  0  1  0  1  0  0  0  0  0  0
   -2.1356    6.5504   -2.5721 H   0  0  0  1  0  1  0  0  0  0  0  0
   -7.6312   -3.8701    8.4712 H   0  0  0  1  0  1  0  0  0  0  0  0
   -7.9628   -1.4409    8.3022 H   0  0  0  1  0  1  0  0  0  0  0  0
   -4.7280    3.1915   -3.8570 H   0  0  0  1  0  1  0  0  0  0  0  0
   -5.4841    1.8401   -2.9793 H   0  0  0  1  0  1  0  0  0  0  0  0
   -5.2289    3.4006   -2.1618 H   0  0  0  1  0  1  0  0  0  0  0  0
  1  2  2  0  0  0  0
  1  3  2  0  0  0  0
  1  6  1  0  0  0  0
  1  9  1  0  0  0  0
  4 16  1  0  0  0  0
  4 31  1  0  0  0  0
  5 20  2  0  0  0  0
  6 12  1  0  0  0  0
  6 33  1  0  0  0  0
  7 11  1  0  0  0  0
  7 20  1  0  0  0  0
  7 37  1  0  0  0  0
  8 18  2  0  0  0  0
  8 19  1  0  0  0  0
  9 10  1  0  0  0  0
  9 13  2  0  0  0  0
 10 11  2  0  0  0  0
 10 32  1  0  0  0  0
 11 14  1  0  0  0  0
 12 16  1  0  0  0  0
 12 21  2  0  0  0  0
 13 15  1  0  0  0  0
 13 34  1  0  0  0  0
 14 15  2  0  0  0  0
 14 35  1  0  0  0  0
 15 36  1  0  0  0  0
 16 24  2  0  0  0  0
 17 19  1  0  0  0  0
 17 22  1  0  0  0  0
 17 25  2  0  0  0  0
 18 20  1  0  0  0  0
 18 23  1  0  0  0  0
 19 27  2  0  0  0  0
 21 26  1  0  0  0  0
 21 38  1  0  0  0  0
 22 23  2  0  0  0  0
 22 39  1  0  0  0  0
 23 40  1  0  0  0  0
 24 28  1  0  0  0  0
 24 41  1  0  0  0  0
 25 29  1  0  0  0  0
 25 42  1  0  0  0  0
 26 28  2  0  0  0  0
 26 43  1  0  0  0  0
 27 30  1  0  0  0  0
 27 44  1  0  0  0  0
 28 45  1  0  0  0  0
 29 30  2  0  0  0  0
 29 46  1  0  0  0  0
 30 47  1  0  0  0  0
 31 48  1  0  0  0  0
 31 49  1  0  0  0  0
 31 50  1  0  0  0  0
M  END
> <Activity>
1.535

> <Mapped(file=504701.csv.activities,property=Cached(PUBCHEM_COMPOUND_CID))>
1.535

> <PUBCHEM_ATOM_DEF_STEREO_COUNT>
0

> <PUBCHEM_ATOM_UDEF_STEREO_COUNT>
0

> <PUBCHEM_BONDANNOTATIONS>
10  11  8
11  14  8
12  16  8
12  21  8
13  15  8
14  15  8
16  24  8
17  19  8
17  22  8
17  25  8
18  23  8
19  27  8
21  26  8
22  23  8
24  28  8
25  29  8
26  28  8
27  30  8
29  30  8
8  18  8
8  19  8
9  10  8
9  13  8

> <PUBCHEM_BOND_DEF_STEREO_COUNT>
0

> <PUBCHEM_BOND_UDEF_STEREO_COUNT>
0

> <PUBCHEM_CACTVS_COMPLEXITY>
710

> <PUBCHEM_CACTVS_HBOND_ACCEPTOR>
6

> <PUBCHEM_CACTVS_HBOND_DONOR>
2

> <PUBCHEM_CACTVS_ROTATABLE_BOND>
6

> <PUBCHEM_CACTVS_SUBSKEYS>
AAADceB7OABAAAAAAAAAAAAAAAAAAAAAAAA8YMEAAAAAAACx9AAAHgQQQAAADAyB3gIyx/LIFAKoAyVyVHDCiDAnIiAImDm3bNgOZvLEtbuVMSxk1BHI6YeYyICOAAAAACACEAAAAAAAQAQgAAAAAAAAAA==

> <PUBCHEM_CACTVS_TAUTO_COUNT>
2

> <PUBCHEM_CACTVS_TPSA>
106

> <PUBCHEM_COMPONENT_COUNT>
1

> <PUBCHEM_COMPOUND_CANONICALIZED>
1

> <PUBCHEM_COMPOUND_CID>
4010113

> <PUBCHEM_COORDINATE_TYPE>
1
5
255

> <PUBCHEM_EXACT_MASS>
433.109627

> <PUBCHEM_HEAVY_ATOM_COUNT>
31

> <PUBCHEM_ISOTOPIC_ATOM_COUNT>
0

> <PUBCHEM_IUPAC_CAS_NAME>
N-[3-[(2-methoxyphenyl)sulfamoyl]phenyl]-2-quinolinecarboxamide

> <PUBCHEM_IUPAC_INCHI>
InChI=1S/C23H19N3O4S/c1-30-22-12-5-4-11-20(22)26-31(28,29)18-9-6-8-17(15-18)24-23(27)21-14-13-16-7-2-3-10-19(16)25-21/h2-15,26H,1H3,(H,24,27)

> <PUBCHEM_IUPAC_INCHIKEY>
QEXWIBSUYZXMOH-UHFFFAOYSA-N

> <PUBCHEM_IUPAC_NAME>
N-[3-[(2-methoxyphenyl)sulfamoyl]phenyl]quinoline-2-carboxamide

> <PUBCHEM_IUPAC_OPENEYE_NAME>
N-[3-[(2-methoxyphenyl)sulfamoyl]phenyl]quinoline-2-carboxamide

> <PUBCHEM_IUPAC_SYSTEMATIC_NAME>
N-[3-[(2-methoxyphenyl)sulfamoyl]phenyl]quinoline-2-carboxamide

> <PUBCHEM_IUPAC_TRADITIONAL_NAME>
N-[3-[(2-methoxyphenyl)sulfamoyl]phenyl]quinaldamide

> <PUBCHEM_MOLECULAR_FORMULA>
C23H19N3O4S

> <PUBCHEM_MOLECULAR_WEIGHT>
433.47966

> <PUBCHEM_MONOISOTOPIC_WEIGHT>
433.109627

> <PUBCHEM_OPENEYE_CAN_SMILES>
COC1=CC=CC=C1NS(=O)(=O)C2=CC=CC(=C2)NC(=O)C3=NC4=CC=CC=C4C=C3

> <PUBCHEM_OPENEYE_ISO_SMILES>
COC1=CC=CC=C1NS(=O)(=O)C2=CC=CC(=C2)NC(=O)C3=NC4=CC=CC=C4C=C3

> <PUBCHEM_TOTAL_CHARGE>
0

> <PUBCHEM_XLOGP3_AA>
3.9

$$$$
Written by BCL::WriteToMDL,803256
MBcorina  10171218483D 1   1.00000     0.00000 
CORINA 3.49 0026  01.06.2011
 32 34  0  0  0  0  0  0  0  0999 V2000
   -0.2621    2.1626   -0.3227 S   0  0  0  1  0  2  0  0  0  0  0  0
   -3.7833   -1.8822   -2.0694 S   0  0  0  1  0  1  0  0  0  0  0  0
   -1.6829   -0.8349   -2.5009 O   0  0  0  1  0  1  0  0  0  0  0  0
   -4.7332   -0.5807    0.0422 N   0  0  0  1  0  3  0  0  0  0  0  0
   -7.4078    0.2419    0.2401 N   0  0  0  1  0  2  0  0  0  0  0  0
   -2.6517    0.1234   -0.7458 N   0  0  0  1  0  3  0  0  0  0  0  0
   -7.1204   -1.0570    0.1213 C   0  0  0  1  0  3  0  0  0  0  0  0
   -5.7834   -1.5007    0.0202 C   0  0  0  1  0  3  0  0  0  0  0  0
   -8.1657   -2.0118    0.0958 C   0  0  0  1  0  3  0  0  0  0  0  0
   -5.5234   -2.8480   -0.1007 C   0  0  0  1  0  3  0  0  0  0  0  0
   -7.8596   -3.3768   -0.0292 C   0  0  0  1  0  3  0  0  0  0  0  0
   -6.5611   -3.7755   -0.1244 C   0  0  0  1  0  3  0  0  0  0  0  0
   -9.4978   -1.5671    0.1969 C   0  0  0  1  0  3  0  0  0  0  0  0
   -9.7221   -0.2252    0.3156 C   0  0  0  1  0  3  0  0  0  0  0  0
   -3.7181   -0.6957   -0.8369 C   0  0  0  1  0  3  0  0  0  0  0  0
   -8.6466    0.6602    0.3348 C   0  0  0  1  0  3  0  0  0  0  0  0
   -0.4777    0.8986   -1.5259 C   0  0  0  1  0  3  0  0  0  0  0  0
   -1.6366    0.0084   -1.6249 C   0  0  0  1  0  3  0  0  0  0  0  0
    0.6096    0.8805   -2.3547 C   0  0  0  1  0  3  0  0  0  0  0  0
    1.5526    1.8277   -2.0347 C   0  0  0  1  0  3  0  0  0  0  0  0
    1.2510    2.5961   -0.9812 C   0  0  0  1  0  3  0  0  0  0  0  0
   -4.5016   -3.1890   -0.1785 H   0  0  0  1  0  1  0  0  0  0  0  0
   -8.6530   -4.1092   -0.0489 H   0  0  0  1  0  1  0  0  0  0  0  0
   -6.3330   -4.8268   -0.2200 H   0  0  0  1  0  1  0  0  0  0  0  0
   -4.7342    0.1411    0.6902 H   0  0  0  1  0  1  0  0  0  0  0  0
  -10.3195   -2.2678    0.1805 H   0  0  0  1  0  1  0  0  0  0  0  0
  -10.7320    0.1492    0.3953 H   0  0  0  1  0  1  0  0  0  0  0  0
   -8.8384    1.7188    0.4299 H   0  0  0  1  0  1  0  0  0  0  0  0
   -2.6148    0.7957   -0.0475 H   0  0  0  1  0  1  0  0  0  0  0  0
    0.7169    0.1902   -3.1784 H   0  0  0  1  0  1  0  0  0  0  0  0
    2.4699    1.9437   -2.5929 H   0  0  0  1  0  1  0  0  0  0  0  0
    1.8810    3.3858   -0.5993 H   0  0  0  1  0  1  0  0  0  0  0  0
  1 17  1  0  0  0  0
  1 21  1  0  0  0  0
  2 15  2  0  0  0  0
  3 18  2  0  0  0  0
  4  8  1  0  0  0  0
  4 15  1  0  0  0  0
  4 25  1  0  0  0  0
  5  7  1  0  0  0  0
  5 16  2  0  0  0  0
  6 15  1  0  0  0  0
  6 18  1  0  0  0  0
  6 29  1  0  0  0  0
  7  8  1  0  0  0  0
  7  9  2  0  0  0  0
  8 10  2  0  0  0  0
  9 11  1  0  0  0  0
  9 13  1  0  0  0  0
 10 12  1  0  0  0  0
 10 22  1  0  0  0  0
 11 12  2  0  0  0  0
 11 23  1  0  0  0  0
 12 24  1  0  0  0  0
 13 14  2  0  0  0  0
 13 26  1  0  0  0  0
 14 16  1  0  0  0  0
 14 27  1  0  0  0  0
 16 28  1  0  0  0  0
 17 18  1  0  0  0  0
 17 19  2  0  0  0  0
 19 20  1  0  0  0  0
 19 30  1  0  0  0  0
 20 21  2  0  0  0  0
 20 31  1  0  0  0  0
 21 32  1  0  0  0  0
M  END
> <Activity>
0.00331

> <Mapped(file=504701.csv.activities,property=Cached(PUBCHEM_COMPOUND_CID))>
0.00331

> <PUBCHEM_ATOM_DEF_STEREO_COUNT>
0

> <PUBCHEM_ATOM_UDEF_STEREO_COUNT>
0

> <PUBCHEM_BONDANNOTATIONS>
1  17  8
1  21  8
10  12  8
11  12  8
13  14  8
14  16  8
17  19  8
19  20  8
20  21  8
5  16  8
5  7  8
7  8  8
7  9  8
8  10  8
9  11  8
9  13  8

> <PUBCHEM_BOND_DEF_STEREO_COUNT>
0

> <PUBCHEM_BOND_UDEF_STEREO_COUNT>
0

> <PUBCHEM_CACTVS_COMPLEXITY>
404

> <PUBCHEM_CACTVS_HBOND_ACCEPTOR>
4

> <PUBCHEM_CACTVS_HBOND_DONOR>
2

> <PUBCHEM_CACTVS_ROTATABLE_BOND>
2

> <PUBCHEM_CACTVS_SUBSKEYS>
AAADccBzIABgAAAAAAAAAAAAAAAAASAAAAA8QAAAAAAAAACx/AAAHgQQAAAADAjF3gS9wfLIEAisAzV3VACDgKA1GjlI2Dk4dNiIYPLglZGUIQhokQLoyacYgIAOAAAAQAACACAAAACAAAQAQAAAAAAAAA==

> <PUBCHEM_CACTVS_TAUTO_COUNT>
5

> <PUBCHEM_CACTVS_TPSA>
114

> <PUBCHEM_COMPONENT_COUNT>
1

> <PUBCHEM_COMPOUND_CANONICALIZED>
1

> <PUBCHEM_COMPOUND_CID>
803256

> <PUBCHEM_COORDINATE_TYPE>
1
5
255

> <PUBCHEM_EXACT_MASS>
313.034354

> <PUBCHEM_HEAVY_ATOM_COUNT>
21

> <PUBCHEM_ISOTOPIC_ATOM_COUNT>
0

> <PUBCHEM_IUPAC_CAS_NAME>
N-[(8-quinolinylamino)-sulfanylidenemethyl]-2-thiophenecarboxamide

> <PUBCHEM_IUPAC_INCHI>
InChI=1S/C15H11N3OS2/c19-14(12-7-3-9-21-12)18-15(20)17-11-6-1-4-10-5-2-8-16-13(10)11/h1-9H,(H2,17,18,19,20)

> <PUBCHEM_IUPAC_INCHIKEY>
XDHSYBVDZZESJO-UHFFFAOYSA-N

> <PUBCHEM_IUPAC_NAME>
N-(quinolin-8-ylcarbamothioyl)thiophene-2-carboxamide

> <PUBCHEM_IUPAC_OPENEYE_NAME>
N-(8-quinolylcarbamothioyl)thiophene-2-carboxamide

> <PUBCHEM_IUPAC_SYSTEMATIC_NAME>
N-(quinolin-8-ylcarbamothioyl)thiophene-2-carboxamide

> <PUBCHEM_IUPAC_TRADITIONAL_NAME>
N-(8-quinolylthiocarbamoyl)thiophene-2-carboxamide

> <PUBCHEM_MOLECULAR_FORMULA>
C15H11N3OS2

> <PUBCHEM_MOLECULAR_WEIGHT>
313.39734

> <PUBCHEM_MONOISOTOPIC_WEIGHT>
313.034354

> <PUBCHEM_OPENEYE_CAN_SMILES>
C1=CC2=C(C(=C1)NC(=S)NC(=O)C3=CC=CS3)N=CC=C2

> <PUBCHEM_OPENEYE_ISO_SMILES>
C1=CC2=C(C(=C1)NC(=S)NC(=O)C3=CC=CS3)N=CC=C2

> <PUBCHEM_TOTAL_CHARGE>
0

> <PUBCHEM_XLOGP3_AA>
3.8

$$$$
Written by BCL::WriteToMDL,24789943
MBcorina  10171218483D 1   1.00000     0.00000 
CORINA 3.49 0026  01.06.2011
 50 53  0  0  0  0  0  0  0  0999 V2000
   -8.5458   -7.4233   -4.6232 Br  0  0  0  1  0  1  0  0  0  0  0  0
    0.6471   -0.4849    1.0786 O   0  0  0  1  0  2  0  0  0  0  0  0
   -8.0472   -2.0551    0.7942 O   0  0  0  1  0  2  0  0  0  0  0  0
   -3.7987   -2.2702    1.3824 O   0  0  0  1  0  1  0  0  0  0  0  0
   -5.6260   -3.3281   -1.4052 O   0  0  0  1  0  1  0  0  0  0  0  0
   -1.9637   -1.5950    0.3342 N   0  0  0  1  0  3  0  0  0  0  0  0
   -5.5908   -1.3726   -0.3092 N   0  0  0  1  0  3  0  0  0  0  0  0
    0.3613   -1.8997    1.0293 C   0  0  0  1  0  4  0  0  0  0  0  0
    1.2872   -2.5268    2.0950 C   0  0  0  1  0  4  0  0  0  0  0  0
    2.4440   -1.5116    2.2315 C   0  0  0  1  0  4  0  0  0  0  0  0
    2.0801   -0.3913    1.2322 C   0  0  0  1  0  4  0  0  0  0  0  0
   -1.1055   -2.1593    1.3788 C   0  0  0  1  0  4  0  0  0  0  0  0
   -3.3035   -1.7045    0.4307 C   0  0  0  1  0  3  0  0  0  0  0  0
   -4.1863   -1.1240   -0.6439 C   0  0  0  1  0  4  0  0  0  0  0  0
   -6.3165   -0.4482    0.4531 C   0  0  0  1  0  3  0  0  0  0  0  0
   -6.2106   -2.5010   -0.7311 C   0  0  0  1  0  3  0  0  0  0  0  0
   -7.5487   -0.8040    1.0001 C   0  0  0  1  0  3  0  0  0  0  0  0
   -7.6246   -2.6887   -0.3423 C   0  0  0  1  0  3  0  0  0  0  0  0
   -5.8112    0.8260    0.6648 C   0  0  0  1  0  3  0  0  0  0  0  0
   -8.2625    0.1142    1.7514 C   0  0  0  1  0  3  0  0  0  0  0  0
   -6.5296    1.7369    1.4169 C   0  0  0  1  0  3  0  0  0  0  0  0
   -8.4628   -3.4530   -1.0770 C   0  0  0  1  0  3  0  0  0  0  0  0
   -7.7515    1.3827    1.9582 C   0  0  0  1  0  3  0  0  0  0  0  0
   -8.0359   -3.9586   -2.3914 C   0  0  0  1  0  3  0  0  0  0  0  0
   -8.4254   -5.2331   -2.8142 C   0  0  0  1  0  3  0  0  0  0  0  0
   -7.2433   -3.1643   -3.2265 C   0  0  0  1  0  3  0  0  0  0  0  0
   -8.0209   -5.7000   -4.0482 C   0  0  0  1  0  3  0  0  0  0  0  0
   -6.8471   -3.6446   -4.4566 C   0  0  0  1  0  3  0  0  0  0  0  0
   -7.2312   -4.9097   -4.8662 C   0  0  0  1  0  3  0  0  0  0  0  0
    0.5935   -2.2995    0.0422 H   0  0  0  1  0  1  0  0  0  0  0  0
    0.7601   -2.6350    3.0429 H   0  0  0  1  0  1  0  0  0  0  0  0
    1.6637   -3.4912    1.7540 H   0  0  0  1  0  1  0  0  0  0  0  0
    2.4887   -1.1180    3.2470 H   0  0  0  1  0  1  0  0  0  0  0  0
    3.3923   -1.9742    1.9580 H   0  0  0  1  0  1  0  0  0  0  0  0
    2.5759   -0.5597    0.2762 H   0  0  0  1  0  1  0  0  0  0  0  0
    2.3555    0.5825    1.6370 H   0  0  0  1  0  1  0  0  0  0  0  0
   -1.3398   -1.6901    2.3343 H   0  0  0  1  0  1  0  0  0  0  0  0
   -1.2775   -3.2333    1.4495 H   0  0  0  1  0  1  0  0  0  0  0  0
   -1.5676   -1.1426   -0.4270 H   0  0  0  1  0  1  0  0  0  0  0  0
   -3.9520   -1.5932   -1.5994 H   0  0  0  1  0  1  0  0  0  0  0  0
   -4.0143   -0.0500   -0.7146 H   0  0  0  1  0  1  0  0  0  0  0  0
   -4.8570    1.1060    0.2434 H   0  0  0  1  0  1  0  0  0  0  0  0
   -9.2174   -0.1597    2.1752 H   0  0  0  1  0  1  0  0  0  0  0  0
   -9.4458   -3.6927   -0.6995 H   0  0  0  1  0  1  0  0  0  0  0  0
   -6.1352    2.7287    1.5815 H   0  0  0  1  0  1  0  0  0  0  0  0
   -8.3087    2.0988    2.5440 H   0  0  0  1  0  1  0  0  0  0  0  0
   -9.0407   -5.8506   -2.1767 H   0  0  0  1  0  1  0  0  0  0  0  0
   -6.9427   -2.1769   -2.9085 H   0  0  0  1  0  1  0  0  0  0  0  0
   -6.2352   -3.0322   -5.1022 H   0  0  0  1  0  1  0  0  0  0  0  0
   -6.9173   -5.2804   -5.8308 H   0  0  0  1  0  1  0  0  0  0  0  0
  1 27  1  0  0  0  0
  2  8  1  0  0  0  0
  2 11  1  0  0  0  0
  3 17  1  0  0  0  0
  3 18  1  0  0  0  0
  4 13  2  0  0  0  0
  5 16  2  0  0  0  0
  6 12  1  0  0  0  0
  6 13  1  0  0  0  0
  6 39  1  0  0  0  0
  7 14  1  0  0  0  0
  7 15  1  0  0  0  0
  7 16  1  0  0  0  0
  8  9  1  0  0  0  0
  8 12  1  0  0  0  0
  8 30  1  0  0  0  0
  9 10  1  0  0  0  0
  9 31  1  0  0  0  0
  9 32  1  0  0  0  0
 10 11  1  0  0  0  0
 10 33  1  0  0  0  0
 10 34  1  0  0  0  0
 11 35  1  0  0  0  0
 11 36  1  0  0  0  0
 12 37  1  0  0  0  0
 12 38  1  0  0  0  0
 13 14  1  0  0  0  0
 14 40  1  0  0  0  0
 14 41  1  0  0  0  0
 15 17  1  0  0  0  0
 15 19  2  0  0  0  0
 16 18  1  0  0  0  0
 17 20  2  0  0  0  0
 18 22  2  0  0  0  0
 19 21  1  0  0  0  0
 19 42  1  0  0  0  0
 20 23  1  0  0  0  0
 20 43  1  0  0  0  0
 21 23  2  0  0  0  0
 21 45  1  0  0  0  0
 22 24  1  0  0  0  0
 22 44  1  0  0  0  0
 23 46  1  0  0  0  0
 24 25  2  0  0  0  0
 24 26  1  0  0  0  0
 25 27  1  0  0  0  0
 25 47  1  0  0  0  0
 26 28  2  0  0  0  0
 26 48  1  0  0  0  0
 27 29  2  0  0  0  0
 28 29  1  0  0  0  0
 28 49  1  0  0  0  0
 29 50  1  0  0  0  0
M  END
> <Activity>
0.31408

> <Mapped(file=504701.csv.activities,property=Cached(PUBCHEM_COMPOUND_CID))>
0.31408

> <PUBCHEM_ATOM_DEF_STEREO_COUNT>
0

> <PUBCHEM_ATOM_UDEF_STEREO_COUNT>
1

> <PUBCHEM_BONDANNOTATIONS>
15  17  8
15  19  8
17  20  8
19  21  8
20  23  8
21  23  8
24  25  8
24  26  8
25  27  8
26  28  8
27  29  8
28  29  8
8  12  3

> <PUBCHEM_BOND_DEF_STEREO_COUNT>
1

> <PUBCHEM_BOND_UDEF_STEREO_COUNT>
0

> <PUBCHEM_CACTVS_COMPLEXITY>
640

> <PUBCHEM_CACTVS_HBOND_ACCEPTOR>
4

> <PUBCHEM_CACTVS_HBOND_DONOR>
1

> <PUBCHEM_CACTVS_ROTATABLE_BOND>
5

> <PUBCHEM_CACTVS_SUBSKEYS>
AAADceB7OAAAEAAAAAAAAAAAAAAAASAAAAA8YIAAAAAAAACxQAAAHgBQAAABrBzhmAYwxoPABACIAiVSUAKCCAAhIgQIiIDPbOgOZiLEsb+XOCjk1hHY65eQ0AIOAAAAEAAAEAAAAAAgAAAgAAAAAAAAAA==

> <PUBCHEM_CACTVS_TAUTO_COUNT>
2

> <PUBCHEM_CACTVS_TPSA>
67.9

> <PUBCHEM_COMPONENT_COUNT>
1

> <PUBCHEM_COMPOUND_CANONICALIZED>
1

> <PUBCHEM_COMPOUND_CID>
24789943

> <PUBCHEM_COORDINATE_TYPE>
1
5
255

> <PUBCHEM_EXACT_MASS>
456.068469

> <PUBCHEM_HEAVY_ATOM_COUNT>
29

> <PUBCHEM_ISOTOPIC_ATOM_COUNT>
0

> <PUBCHEM_IUPAC_CAS_NAME>
2-[(2E)-2-[(3-bromophenyl)methylidene]-3-oxo-1,4-benzoxazin-4-yl]-N-(2-oxolanylmethyl)acetamide

> <PUBCHEM_IUPAC_INCHI>
InChI=1S/C22H21BrN2O4/c23-16-6-3-5-15(11-16)12-20-22(27)25(18-8-1-2-9-19(18)29-20)14-21(26)24-13-17-7-4-10-28-17/h1-3,5-6,8-9,11-12,17H,4,7,10,13-14H2,(H,24,26)/b20-12+

> <PUBCHEM_IUPAC_INCHIKEY>
SQRVUKFBVAXVJL-UDWIEESQSA-N

> <PUBCHEM_IUPAC_NAME>
2-[(2E)-2-[(3-bromophenyl)methylidene]-3-oxo-1,4-benzoxazin-4-yl]-N-(oxolan-2-ylmethyl)acetamide

> <PUBCHEM_IUPAC_OPENEYE_NAME>
2-[(2E)-2-[(3-bromophenyl)methylene]-3-oxo-1,4-benzoxazin-4-yl]-N-(tetrahydrofuran-2-ylmethyl)acetamide

> <PUBCHEM_IUPAC_SYSTEMATIC_NAME>
2-[(2E)-2-[(3-bromophenyl)methylidene]-3-oxidanylidene-1,4-benzoxazin-4-yl]-N-(oxolan-2-ylmethyl)ethanamide

> <PUBCHEM_IUPAC_TRADITIONAL_NAME>
2-[(2E)-2-(3-bromobenzylidene)-3-keto-1,4-benzoxazin-4-yl]-N-(tetrahydrofurfuryl)acetamide

> <PUBCHEM_MOLECULAR_FORMULA>
C22H21BrN2O4

> <PUBCHEM_MOLECULAR_WEIGHT>
457.31714

> <PUBCHEM_MONOISOTOPIC_WEIGHT>
456.068469

> <PUBCHEM_OPENEYE_CAN_SMILES>
C1CC(OC1)CNC(=O)CN2C3=CC=CC=C3OC(=CC4=CC(=CC=C4)Br)C2=O

> <PUBCHEM_OPENEYE_ISO_SMILES>
C1CC(OC1)CNC(=O)CN2C3=CC=CC=C3O/C(=C/C4=CC(=CC=C4)Br)/C2=O

> <PUBCHEM_TOTAL_CHARGE>
0

> <PUBCHEM_XLOGP3_AA>
3.6

$$$$
Written by BCL::WriteToMDL,943152
MBcorina  10171218483D 1   1.00000     0.00000 
CORINA 3.49 0026  01.06.2011
 33 36  0  0  0  0  0  0  0  0999 V2000
   -0.0218    1.7538    0.0117 S   0  0  0  1  0  2  0  0  0  0  0  0
    6.4357    3.9445   -0.0403 S   0  0  0  1  0  2  0  0  0  0  0  0
    4.2105   -0.7061   -0.0426 O   0  0  0  1  0  1  0  0  0  0  0  0
    4.4108    1.5391   -0.0331 N   0  0  0  1  0  3  0  0  0  0  0  0
    2.5060    2.9451   -0.0061 N   0  0  0  1  0  2  0  0  0  0  0  0
    5.7745    1.4606   -0.0467 N   0  0  0  1  0  3  0  0  0  0  0  0
    1.2556   -0.4760   -0.0125 C   0  0  0  1  0  3  0  0  0  0  0  0
    1.5854   -1.9633   -0.0245 C   0  0  0  1  0  4  0  0  0  0  0  0
    0.3489   -2.7497    0.4129 C   0  0  0  1  0  4  0  0  0  0  0  0
   -0.8550   -2.2932   -0.4169 C   0  0  0  1  0  4  0  0  0  0  0  0
   -1.2412   -0.8750    0.0092 C   0  0  0  1  0  4  0  0  0  0  0  0
    0.0021   -0.0041    0.0020 C   0  0  0  1  0  3  0  0  0  0  0  0
    2.2641    0.5605   -0.0164 C   0  0  0  1  0  3  0  0  0  0  0  0
    1.7218    1.8496   -0.0044 C   0  0  0  1  0  3  0  0  0  0  0  0
    3.6859    0.3941   -0.0315 C   0  0  0  1  0  3  0  0  0  0  0  0
    3.8169    2.7706   -0.0195 C   0  0  0  1  0  3  0  0  0  0  0  0
    4.6776    3.9587   -0.0218 C   0  0  0  1  0  3  0  0  0  0  0  0
    4.2415    5.2528   -0.0096 C   0  0  0  1  0  3  0  0  0  0  0  0
    5.2663    6.1721   -0.0149 C   0  0  0  1  0  3  0  0  0  0  0  0
    6.4965    5.6495   -0.0308 C   0  0  0  1  0  3  0  0  0  0  0  0
    1.8724   -2.2653   -1.0318 H   0  0  0  1  0  1  0  0  0  0  0  0
    2.4061   -2.1606    0.6651 H   0  0  0  1  0  1  0  0  0  0  0  0
    0.5189   -3.8144    0.2533 H   0  0  0  1  0  1  0  0  0  0  0  0
    0.1544   -2.5649    1.4694 H   0  0  0  1  0  1  0  0  0  0  0  0
   -0.5921   -2.2977   -1.4747 H   0  0  0  1  0  1  0  0  0  0  0  0
   -1.6939   -2.9674   -0.2445 H   0  0  0  1  0  1  0  0  0  0  0  0
   -1.9741   -0.4708   -0.6890 H   0  0  0  1  0  1  0  0  0  0  0  0
   -1.6648   -0.8981    1.0132 H   0  0  0  1  0  1  0  0  0  0  0  0
    6.0813    0.4994   -0.0543 H   0  0  0  1  0  1  0  0  0  0  0  0
    6.1582    1.9688   -0.8294 H   0  0  0  1  0  1  0  0  0  0  0  0
    3.1971    5.5276    0.0026 H   0  0  0  1  0  1  0  0  0  0  0  0
    5.0892    7.2375   -0.0070 H   0  0  0  1  0  1  0  0  0  0  0  0
    7.4076    6.2294   -0.0365 H   0  0  0  1  0  1  0  0  0  0  0  0
  1 12  1  0  0  0  0
  1 14  1  0  0  0  0
  2 17  1  0  0  0  0
  2 20  1  0  0  0  0
  3 15  2  0  0  0  0
  4  6  1  0  0  0  0
  4 15  1  0  0  0  0
  4 16  1  0  0  0  0
  5 14  1  0  0  0  0
  5 16  2  0  0  0  0
  6 29  1  0  0  0  0
  6 30  1  0  0  0  0
  7  8  1  0  0  0  0
  7 12  2  0  0  0  0
  7 13  1  0  0  0  0
  8  9  1  0  0  0  0
  8 21  1  0  0  0  0
  8 22  1  0  0  0  0
  9 10  1  0  0  0  0
  9 23  1  0  0  0  0
  9 24  1  0  0  0  0
 10 11  1  0  0  0  0
 10 25  1  0  0  0  0
 10 26  1  0  0  0  0
 11 12  1  0  0  0  0
 11 27  1  0  0  0  0
 11 28  1  0  0  0  0
 13 14  2  0  0  0  0
 13 15  1  0  0  0  0
 16 17  1  0  0  0  0
 17 18  2  0  0  0  0
 18 19  1  0  0  0  0
 18 31  1  0  0  0  0
 19 20  2  0  0  0  0
 19 32  1  0  0  0  0
 20 33  1  0  0  0  0
M  END
> <Activity>
2.978

> <Mapped(file=504701.csv.activities,property=Cached(PUBCHEM_COMPOUND_CID))>
2.978

> <PUBCHEM_ATOM_DEF_STEREO_COUNT>
0

> <PUBCHEM_ATOM_UDEF_STEREO_COUNT>
0

> <PUBCHEM_BONDANNOTATIONS>
1  12  8
1  14  8
13  14  8
13  15  8
17  18  8
18  19  8
19  20  8
2  17  8
2  20  8
4  15  8
4  16  8
5  14  8
5  16  8
7  12  8
7  13  8

> <PUBCHEM_BOND_DEF_STEREO_COUNT>
0

> <PUBCHEM_BOND_UDEF_STEREO_COUNT>
0

> <PUBCHEM_CACTVS_COMPLEXITY>
456

> <PUBCHEM_CACTVS_HBOND_ACCEPTOR>
4

> <PUBCHEM_CACTVS_HBOND_DONOR>
1

> <PUBCHEM_CACTVS_ROTATABLE_BOND>
1

> <PUBCHEM_CACTVS_SUBSKEYS>
AAADccBzIABgAAAAAAAAAAAAAAAAASJAAAAwQAAAAAAAAEgB4AAAHgQYAAAADACF2ACxgYICAAisAiNydACDAIFkCBBbqBkgRNgIILqg3ZGEAYhghACoyUcYiMCOgAAAAAAAAAAAAAAAAAgAAAAAAAAAAA==

> <PUBCHEM_CACTVS_TAUTO_COUNT>
1

> <PUBCHEM_CACTVS_TPSA>
115

> <PUBCHEM_COMPONENT_COUNT>
1

> <PUBCHEM_COMPOUND_CANONICALIZED>
1

> <PUBCHEM_COMPOUND_CID>
943152

> <PUBCHEM_COORDINATE_TYPE>
1
5
255

> <PUBCHEM_EXACT_MASS>
303.050004

> <PUBCHEM_HEAVY_ATOM_COUNT>
20

> <PUBCHEM_ISOTOPIC_ATOM_COUNT>
0

> <PUBCHEM_IUPAC_CAS_NAME>
3-amino-2-thiophen-2-yl-5,6,7,8-tetrahydro-[1]benzothiolo[2,3-d]pyrimidin-4-one

> <PUBCHEM_IUPAC_INCHI>
InChI=1S/C14H13N3OS2/c15-17-12(10-6-3-7-19-10)16-13-11(14(17)18)8-4-1-2-5-9(8)20-13/h3,6-7H,1-2,4-5,15H2

> <PUBCHEM_IUPAC_INCHIKEY>
PUOFENAWFXNNIH-UHFFFAOYSA-N

> <PUBCHEM_IUPAC_NAME>
3-amino-2-thiophen-2-yl-5,6,7,8-tetrahydro-[1]benzothiolo[2,3-d]pyrimidin-4-one

> <PUBCHEM_IUPAC_OPENEYE_NAME>
3-amino-2-(2-thienyl)-5,6,7,8-tetrahydrobenzothiopheno[2,3-d]pyrimidin-4-one

> <PUBCHEM_IUPAC_SYSTEMATIC_NAME>
3-azanyl-2-thiophen-2-yl-5,6,7,8-tetrahydro-[1]benzothiolo[2,3-d]pyrimidin-4-one

> <PUBCHEM_IUPAC_TRADITIONAL_NAME>
3-amino-2-(2-thienyl)-5,6,7,8-tetrahydrobenzothiopheno[2,3-d]pyrimidin-4-one

> <PUBCHEM_MOLECULAR_FORMULA>
C14H13N3OS2

> <PUBCHEM_MOLECULAR_WEIGHT>
303.40252

> <PUBCHEM_MONOISOTOPIC_WEIGHT>
303.050004

> <PUBCHEM_OPENEYE_CAN_SMILES>
C1CCC2=C(C1)C3=C(S2)N=C(N(C3=O)N)C4=CC=CS4

> <PUBCHEM_OPENEYE_ISO_SMILES>
C1CCC2=C(C1)C3=C(S2)N=C(N(C3=O)N)C4=CC=CS4

> <PUBCHEM_TOTAL_CHARGE>
0

> <PUBCHEM_XLOGP3_AA>
3

$$$$
Written by BCL::WriteToMDL,44142353
MBcorina  10171218483D 1   1.00000     0.00000 
CORINA 3.49 0026  01.06.2011
 51 54  0  0  0  0  0  0  0  0999 V2000
    8.4411   -2.1332   -0.3259 O   0  0  0  1  0  1  0  0  0  0  0  0
   -0.0942    1.2412    0.5130 O   0  0  0  1  0  2  0  0  0  0  0  0
   -2.3671   -2.9342    0.6591 O   0  0  0  1  0  2  0  0  0  0  0  0
    8.3471   -6.1470   -0.1188 N   0  0  0  1  0  3  0  0  0  0  0  0
    7.1498   -5.4694   -0.0263 C   0  0  0  1  0  3  0  0  0  0  0  0
    9.5568   -5.5178    0.0912 C   0  0  0  1  0  3  0  0  0  0  0  0
    7.1268   -4.0623   -0.0188 C   0  0  0  1  0  3  0  0  0  0  0  0
    9.6378   -4.1140    0.1037 C   0  0  0  1  0  3  0  0  0  0  0  0
    8.4053   -3.3293   -0.1007 C   0  0  0  1  0  3  0  0  0  0  0  0
    8.3341   -7.5756   -0.4432 C   0  0  0  1  0  4  0  0  0  0  0  0
    5.9497   -6.1746    0.0612 C   0  0  0  1  0  3  0  0  0  0  0  0
    5.9154   -3.3808    0.0680 C   0  0  0  1  0  3  0  0  0  0  0  0
   10.7133   -6.2662    0.2937 C   0  0  0  1  0  3  0  0  0  0  0  0
   10.8653   -3.4836    0.3093 C   0  0  0  1  0  3  0  0  0  0  0  0
    4.7287   -4.1056    0.1520 C   0  0  0  1  0  3  0  0  0  0  0  0
    4.7635   -5.5075    0.1489 C   0  0  0  1  0  3  0  0  0  0  0  0
   11.9183   -5.6300    0.4981 C   0  0  0  1  0  3  0  0  0  0  0  0
   11.9967   -4.2446    0.5048 C   0  0  0  1  0  3  0  0  0  0  0  0
    8.2964   -8.3797    0.8308 C   0  0  0  1  0  3  0  0  0  0  0  0
    3.4748   -3.4199    0.2419 C   0  0  0  1  0  2  0  0  0  0  0  0
    7.3506   -9.2665    1.0179 C   0  0  0  1  0  3  0  0  0  0  0  0
    1.1929   -2.1720    0.4056 C   0  0  0  1  0  3  0  0  0  0  0  0
    2.4468   -2.8577    0.3156 C   0  0  0  1  0  2  0  0  0  0  0  0
    0.0021   -2.8973    0.4898 C   0  0  0  1  0  3  0  0  0  0  0  0
    1.1569   -0.7757    0.4156 C   0  0  0  1  0  3  0  0  0  0  0  0
   -0.0580   -0.1173    0.5031 C   0  0  0  1  0  3  0  0  0  0  0  0
   -1.2078   -2.2297    0.5771 C   0  0  0  1  0  3  0  0  0  0  0  0
   -1.2386   -0.8423    0.5813 C   0  0  0  1  0  3  0  0  0  0  0  0
    1.1582    1.9242    0.4301 C   0  0  0  1  0  4  0  0  0  0  0  0
   -2.2622   -4.3593    0.6500 C   0  0  0  1  0  4  0  0  0  0  0  0
    7.4531   -7.8039   -1.0431 H   0  0  0  1  0  1  0  0  0  0  0  0
    9.2325   -7.8286   -1.0061 H   0  0  0  1  0  1  0  0  0  0  0  0
    5.9598   -7.2546    0.0593 H   0  0  0  1  0  1  0  0  0  0  0  0
    5.8962   -2.3009    0.0710 H   0  0  0  1  0  1  0  0  0  0  0  0
   10.6658   -7.3452    0.2908 H   0  0  0  1  0  1  0  0  0  0  0  0
   10.9280   -2.4055    0.3147 H   0  0  0  1  0  1  0  0  0  0  0  0
    3.8409   -6.0649    0.2162 H   0  0  0  1  0  1  0  0  0  0  0  0
   12.8117   -6.2162    0.6553 H   0  0  0  1  0  1  0  0  0  0  0  0
   12.9491   -3.7608    0.6640 H   0  0  0  1  0  1  0  0  0  0  0  0
    9.0492   -8.2248    1.5896 H   0  0  0  1  0  1  0  0  0  0  0  0
    6.5978   -9.4214    0.2592 H   0  0  0  1  0  1  0  0  0  0  0  0
    7.3236   -9.8428    1.9310 H   0  0  0  1  0  1  0  0  0  0  0  0
    0.0250   -3.9771    0.4866 H   0  0  0  1  0  1  0  0  0  0  0  0
    2.0753   -0.2105    0.3555 H   0  0  0  1  0  1  0  0  0  0  0  0
   -2.1842   -0.3252    0.6502 H   0  0  0  1  0  1  0  0  0  0  0  0
    0.9870    3.0006    0.4477 H   0  0  0  1  0  1  0  0  0  0  0  0
    1.7829    1.6418    1.2775 H   0  0  0  1  0  1  0  0  0  0  0  0
    1.6601    1.6514   -0.4982 H   0  0  0  1  0  1  0  0  0  0  0  0
   -1.7878   -4.6828   -0.2766 H   0  0  0  1  0  1  0  0  0  0  0  0
   -1.6609   -4.6848    1.4989 H   0  0  0  1  0  1  0  0  0  0  0  0
   -3.2578   -4.7974    0.7206 H   0  0  0  1  0  1  0  0  0  0  0  0
  1  9  2  0  0  0  0
  2 26  1  0  0  0  0
  2 29  1  0  0  0  0
  3 27  1  0  0  0  0
  3 30  1  0  0  0  0
  4  5  1  0  0  0  0
  4  6  1  0  0  0  0
  4 10  1  0  0  0  0
  5  7  2  0  0  0  0
  5 11  1  0  0  0  0
  6  8  1  0  0  0  0
  6 13  2  0  0  0  0
  7  9  1  0  0  0  0
  7 12  1  0  0  0  0
  8  9  1  0  0  0  0
  8 14  2  0  0  0  0
 10 19  1  0  0  0  0
 10 31  1  0  0  0  0
 10 32  1  0  0  0  0
 11 16  2  0  0  0  0
 11 33  1  0  0  0  0
 12 15  2  0  0  0  0
 12 34  1  0  0  0  0
 13 17  1  0  0  0  0
 13 35  1  0  0  0  0
 14 18  1  0  0  0  0
 14 36  1  0  0  0  0
 15 16  1  0  0  0  0
 15 20  1  0  0  0  0
 16 37  1  0  0  0  0
 17 18  2  0  0  0  0
 17 38  1  0  0  0  0
 18 39  1  0  0  0  0
 19 21  2  0  0  0  0
 19 40  1  0  0  0  0
 20 23  3  0  0  0  0
 21 41  1  0  0  0  0
 21 42  1  0  0  0  0
 22 23  1  0  0  0  0
 22 24  2  0  0  0  0
 22 25  1  0  0  0  0
 24 27  1  0  0  0  0
 24 43  1  0  0  0  0
 25 26  2  0  0  0  0
 25 44  1  0  0  0  0
 26 28  1  0  0  0  0
 27 28  2  0  0  0  0
 28 45  1  0  0  0  0
 29 46  1  0  0  0  0
 29 47  1  0  0  0  0
 29 48  1  0  0  0  0
 30 49  1  0  0  0  0
 30 50  1  0  0  0  0
 30 51  1  0  0  0  0
M  END
> <Activity>
1.188

> <Mapped(file=504701.csv.activities,property=Cached(PUBCHEM_COMPOUND_CID))>
1.188

> <PUBCHEM_ATOM_DEF_STEREO_COUNT>
0

> <PUBCHEM_ATOM_UDEF_STEREO_COUNT>
0

> <PUBCHEM_BONDANNOTATIONS>
11  16  8
12  15  8
13  17  8
14  18  8
15  16  8
17  18  8
22  24  8
22  25  8
24  27  8
25  26  8
26  28  8
27  28  8
4  5  8
4  6  8
5  11  8
5  7  8
6  13  8
6  8  8
7  12  8
7  9  8
8  14  8
8  9  8

> <PUBCHEM_BOND_DEF_STEREO_COUNT>
0

> <PUBCHEM_BOND_UDEF_STEREO_COUNT>
0

> <PUBCHEM_CACTVS_COMPLEXITY>
679

> <PUBCHEM_CACTVS_HBOND_ACCEPTOR>
4

> <PUBCHEM_CACTVS_HBOND_DONOR>
0

> <PUBCHEM_CACTVS_ROTATABLE_BOND>
6

> <PUBCHEM_CACTVS_SUBSKEYS>
AAADceB6MAAAAAAAAAAAAAAAAAAAAAAAAAA8YMEAAAAAAACxUAAAHgAAAAAADAzBmAYyxoMABADIEqRSQAiCCAAlIgAIiAEObMgMJ3rEtZuEMahlwBXI6ceY6NyOCAADCAACAAAQAAYQAAQAAAAAAAAAAA==

> <PUBCHEM_CACTVS_TAUTO_COUNT>
1

> <PUBCHEM_CACTVS_TPSA>
38.8

> <PUBCHEM_COMPONENT_COUNT>
1

> <PUBCHEM_COMPOUND_CANONICALIZED>
1

> <PUBCHEM_COMPOUND_CID>
44142353

> <PUBCHEM_COORDINATE_TYPE>
1
5
255

> <PUBCHEM_EXACT_MASS>
395.152144

> <PUBCHEM_HEAVY_ATOM_COUNT>
30

> <PUBCHEM_ISOTOPIC_ATOM_COUNT>
0

> <PUBCHEM_IUPAC_CAS_NAME>
2-[2-(3,5-dimethoxyphenyl)ethynyl]-10-prop-2-enyl-9-acridinone

> <PUBCHEM_IUPAC_INCHI>
InChI=1S/C26H21NO3/c1-4-13-27-24-8-6-5-7-22(24)26(28)23-16-18(11-12-25(23)27)9-10-19-14-20(29-2)17-21(15-19)30-3/h4-8,11-12,14-17H,1,13H2,2-3H3

> <PUBCHEM_IUPAC_INCHIKEY>
SLYOYOUYHWDZDC-UHFFFAOYSA-N

> <PUBCHEM_IUPAC_NAME>
2-[2-(3,5-dimethoxyphenyl)ethynyl]-10-prop-2-enylacridin-9-one

> <PUBCHEM_IUPAC_OPENEYE_NAME>
10-allyl-2-[2-(3,5-dimethoxyphenyl)ethynyl]acridin-9-one

> <PUBCHEM_IUPAC_SYSTEMATIC_NAME>
2-[2-(3,5-dimethoxyphenyl)ethynyl]-10-prop-2-enyl-acridin-9-one

> <PUBCHEM_IUPAC_TRADITIONAL_NAME>
10-allyl-2-[2-(3,5-dimethoxyphenyl)ethynyl]acridin-9-one

> <PUBCHEM_MOLECULAR_FORMULA>
C26H21NO3

> <PUBCHEM_MOLECULAR_WEIGHT>
395.44984

> <PUBCHEM_MONOISOTOPIC_WEIGHT>
395.152144

> <PUBCHEM_OPENEYE_CAN_SMILES>
COC1=CC(=CC(=C1)C#CC2=CC3=C(C=C2)N(C4=CC=CC=C4C3=O)CC=C)OC

> <PUBCHEM_OPENEYE_ISO_SMILES>
COC1=CC(=CC(=C1)C#CC2=CC3=C(C=C2)N(C4=CC=CC=C4C3=O)CC=C)OC

> <PUBCHEM_TOTAL_CHARGE>
0

> <PUBCHEM_XLOGP3_AA>
5.7

$$$$
Written by BCL::WriteToMDL,729709
MBcorina  10171218483D 1   1.00000     0.00000 
CORINA 3.49 0026  01.06.2011
 39 41  0  0  0  0  0  0  0  0999 V2000
   -0.0641   -1.9239    3.5419 O   0  0  0  1  0  1  0  0  0  0  0  0
    1.8723    0.9734    0.3384 O   0  0  0  1  0  2  0  0  0  0  0  0
   -0.4224    1.6594    8.7272 N   0  0  0  1  0  3  0  0  0  0  0  0
    0.3412   -0.0506    2.4173 N   0  0  0  1  0  3  0  0  0  0  0  0
    0.5387    2.5297    4.8985 N   0  0  0  1  0  1  0  0  0  0  0  0
   -0.2335    0.5234    9.4886 C   0  0  0  1  0  3  0  0  0  0  0  0
   -0.0746   -0.5588    8.6088 C   0  0  0  1  0  3  0  0  0  0  0  0
   -0.1815    0.0075    7.2492 C   0  0  0  1  0  3  0  0  0  0  0  0
   -0.3929    1.3633    7.4132 C   0  0  0  1  0  3  0  0  0  0  0  0
   -0.1799    0.2991   10.8604 C   0  0  0  1  0  3  0  0  0  0  0  0
    0.1337   -1.8407    9.1076 C   0  0  0  1  0  3  0  0  0  0  0  0
   -0.6324    3.0025    9.2734 C   0  0  0  1  0  4  0  0  0  0  0  0
   -0.0868   -0.6952    6.0271 C   0  0  0  1  0  3  0  0  0  0  0  0
    0.1834   -2.0432   10.4704 C   0  0  0  1  0  3  0  0  0  0  0  0
    0.0275   -0.9757   11.3416 C   0  0  0  1  0  3  0  0  0  0  0  0
    0.1310   -0.0052    4.8471 C   0  0  0  1  0  3  0  0  0  0  0  0
    0.1291   -0.7225    3.5663 C   0  0  0  1  0  3  0  0  0  0  0  0
    0.4728   -0.7501    1.2111 C   0  0  0  1  0  3  0  0  0  0  0  0
    1.2450   -0.2224    0.1780 C   0  0  0  1  0  3  0  0  0  0  0  0
   -0.1604   -1.9727    1.0436 C   0  0  0  1  0  3  0  0  0  0  0  0
    1.3714   -0.9185   -1.0126 C   0  0  0  1  0  3  0  0  0  0  0  0
   -0.0290   -2.6612   -0.1479 C   0  0  0  1  0  3  0  0  0  0  0  0
    0.3584    1.4084    4.8758 C   0  0  0  1  0  2  0  0  0  0  0  0
    0.7324   -2.1343   -1.1743 C   0  0  0  1  0  3  0  0  0  0  0  0
   -0.5161    2.0760    6.6112 H   0  0  0  1  0  1  0  0  0  0  0  0
    0.2556   -2.6732    8.4305 H   0  0  0  1  0  1  0  0  0  0  0  0
   -0.3004    1.1233   11.5478 H   0  0  0  1  0  1  0  0  0  0  0  0
    0.3302    3.4980    9.3996 H   0  0  0  1  0  1  0  0  0  0  0  0
   -1.2516    3.5808    8.5877 H   0  0  0  1  0  1  0  0  0  0  0  0
   -1.1321    2.9278   10.2393 H   0  0  0  1  0  1  0  0  0  0  0  0
   -0.1845   -1.7707    6.0136 H   0  0  0  1  0  1  0  0  0  0  0  0
    0.3446   -3.0371   10.8609 H   0  0  0  1  0  1  0  0  0  0  0  0
    0.0687   -1.1449   12.4075 H   0  0  0  1  0  1  0  0  0  0  0  0
    0.4028    0.9174    2.4258 H   0  0  0  1  0  1  0  0  0  0  0  0
   -0.7557   -2.3868    1.8440 H   0  0  0  1  0  1  0  0  0  0  0  0
    1.9689   -0.5117   -1.8150 H   0  0  0  1  0  1  0  0  0  0  0  0
   -0.5226   -3.6131   -0.2772 H   0  0  0  1  0  1  0  0  0  0  0  0
    0.8319   -2.6755   -2.1036 H   0  0  0  1  0  1  0  0  0  0  0  0
    2.7649    0.9034    0.7038 H   0  0  0  1  0  1  0  0  0  0  0  0
  1 17  2  0  0  0  0
  2 19  1  0  0  0  0
  2 39  1  0  0  0  0
  3  6  1  0  0  0  0
  3  9  1  0  0  0  0
  3 12  1  0  0  0  0
  4 17  1  0  0  0  0
  4 18  1  0  0  0  0
  4 34  1  0  0  0  0
  5 23  3  0  0  0  0
  6  7  1  0  0  0  0
  6 10  2  0  0  0  0
  7  8  1  0  0  0  0
  7 11  2  0  0  0  0
  8  9  2  0  0  0  0
  8 13  1  0  0  0  0
  9 25  1  0  0  0  0
 10 15  1  0  0  0  0
 10 27  1  0  0  0  0
 11 14  1  0  0  0  0
 11 26  1  0  0  0  0
 12 28  1  0  0  0  0
 12 29  1  0  0  0  0
 12 30  1  0  0  0  0
 13 16  2  0  0  0  0
 13 31  1  0  0  0  0
 14 15  2  0  0  0  0
 14 32  1  0  0  0  0
 15 33  1  0  0  0  0
 16 17  1  0  0  0  0
 16 23  1  0  0  0  0
 18 19  1  0  0  0  0
 18 20  2  0  0  0  0
 19 21  2  0  0  0  0
 20 22  1  0  0  0  0
 20 35  1  0  0  0  0
 21 24  1  0  0  0  0
 21 36  1  0  0  0  0
 22 24  2  0  0  0  0
 22 37  1  0  0  0  0
 24 38  1  0  0  0  0
M  END
> <Activity>
4.477

> <Mapped(file=504701.csv.activities,property=Cached(PUBCHEM_COMPOUND_CID))>
4.477

> <PUBCHEM_ATOM_DEF_STEREO_COUNT>
0

> <PUBCHEM_ATOM_UDEF_STEREO_COUNT>
0

> <PUBCHEM_BONDANNOTATIONS>
10  15  8
11  14  8
14  15  8
18  19  8
18  20  8
19  21  8
20  22  8
21  24  8
22  24  8
3  6  8
3  9  8
6  10  8
6  7  8
7  11  8
7  8  8
8  9  8

> <PUBCHEM_BOND_DEF_STEREO_COUNT>
1

> <PUBCHEM_BOND_UDEF_STEREO_COUNT>
0

> <PUBCHEM_CACTVS_COMPLEXITY>
550

> <PUBCHEM_CACTVS_HBOND_ACCEPTOR>
3

> <PUBCHEM_CACTVS_HBOND_DONOR>
2

> <PUBCHEM_CACTVS_ROTATABLE_BOND>
3

> <PUBCHEM_CACTVS_SUBSKEYS>
AAADccB7MAAAAAAAAAAAAAAAAAAAAWAAAAAwYAAAAAAAAFgB9AAAHgAQCAAADAzBngQ+xvPMEgC4BzV3VACigCAxIiAI2CE/bNgKpuLSkZOEcAhk1BHY2YeQwMAOgAAAAAACEAAAAAAAAAQgAAAAAAAAAA==

> <PUBCHEM_CACTVS_TAUTO_COUNT>
8

> <PUBCHEM_CACTVS_TPSA>
78

> <PUBCHEM_COMPONENT_COUNT>
1

> <PUBCHEM_COMPOUND_CANONICALIZED>
1

> <PUBCHEM_COMPOUND_CID>
729709

> <PUBCHEM_COORDINATE_TYPE>
1
5
255

> <PUBCHEM_EXACT_MASS>
317.116427

> <PUBCHEM_HEAVY_ATOM_COUNT>
24

> <PUBCHEM_ISOTOPIC_ATOM_COUNT>
0

> <PUBCHEM_IUPAC_CAS_NAME>
(E)-2-cyano-N-(2-hydroxyphenyl)-3-(1-methyl-3-indolyl)-2-propenamide

> <PUBCHEM_IUPAC_INCHI>
InChI=1S/C19H15N3O2/c1-22-12-14(15-6-2-4-8-17(15)22)10-13(11-20)19(24)21-16-7-3-5-9-18(16)23/h2-10,12,23H,1H3,(H,21,24)/b13-10+

> <PUBCHEM_IUPAC_INCHIKEY>
JERRNTIRXOVXGL-JLHYYAGUSA-N

> <PUBCHEM_IUPAC_NAME>
(E)-2-cyano-N-(2-hydroxyphenyl)-3-(1-methylindol-3-yl)prop-2-enamide

> <PUBCHEM_IUPAC_OPENEYE_NAME>
(E)-2-cyano-N-(2-hydroxyphenyl)-3-(1-methylindol-3-yl)prop-2-enamide

> <PUBCHEM_IUPAC_SYSTEMATIC_NAME>
(E)-2-cyano-N-(2-hydroxyphenyl)-3-(1-methylindol-3-yl)prop-2-enamide

> <PUBCHEM_IUPAC_TRADITIONAL_NAME>
(E)-2-cyano-N-(2-hydroxyphenyl)-3-(1-methylindol-3-yl)acrylamide

> <PUBCHEM_MOLECULAR_FORMULA>
C19H15N3O2

> <PUBCHEM_MOLECULAR_WEIGHT>
317.3413

> <PUBCHEM_MONOISOTOPIC_WEIGHT>
317.116427

> <PUBCHEM_OPENEYE_CAN_SMILES>
CN1C=C(C2=CC=CC=C21)C=C(C#N)C(=O)NC3=CC=CC=C3O

> <PUBCHEM_OPENEYE_ISO_SMILES>
CN1C=C(C2=CC=CC=C21)/C=C(\C#N)/C(=O)NC3=CC=CC=C3O

> <PUBCHEM_TOTAL_CHARGE>
0

> <PUBCHEM_XLOGP3_AA>
3.4

$$$$
Written by BCL::WriteToMDL,1327610
MBcorina  10171218483D 1   1.00000     0.00000 
CORINA 3.49 0026  01.06.2011
 35 38  0  0  0  0  0  0  0  0999 V2000
   -0.0218    1.7538    0.0117 S   0  0  0  1  0  2  0  0  0  0  0  0
   -2.1038    1.9957   -1.6475 S   0  0  0  1  0  2  0  0  0  0  0  0
   -7.0134   -4.9627   -0.1001 O   0  5  0  1  0  1  0  0  0  0  0  0
   -6.8826   -6.7105    1.3600 O   0  0  0  1  0  1  0  0  0  0  0  0
   -1.3320   -1.9471    0.7751 N   0  0  0  1  0  3  0  0  0  0  0  0
   -3.1482   -1.6968   -0.4683 N   0  0  0  1  0  2  0  0  0  0  0  0
   -6.3487   -5.6366    0.8157 N   0  3  0  1  0  3  0  0  0  0  0  0
   -1.1203   -0.8266    0.0079 C   0  0  0  1  0  3  0  0  0  0  0  0
   -2.3487   -0.6837   -0.8121 C   0  0  0  1  0  3  0  0  0  0  0  0
   -2.5685   -2.4391    0.4540 C   0  0  0  1  0  3  0  0  0  0  0  0
   -3.1711   -3.6392    1.0588 C   0  0  0  1  0  3  0  0  0  0  0  0
    0.0021   -0.0041    0.0020 C   0  0  0  1  0  3  0  0  0  0  0  0
   -2.6172    0.3182   -1.7624 C   0  0  0  1  0  3  0  0  0  0  0  0
   -4.4447   -4.0628    0.6622 C   0  0  0  1  0  3  0  0  0  0  0  0
   -2.4708   -4.3655    2.0291 C   0  0  0  1  0  3  0  0  0  0  0  0
    1.3282   -0.4429   -0.0130 C   0  0  0  1  0  3  0  0  0  0  0  0
   -5.0017   -5.1871    1.2332 C   0  0  0  1  0  3  0  0  0  0  0  0
   -3.3300    0.1401   -2.9396 C   0  0  0  1  0  3  0  0  0  0  0  0
   -3.0417   -5.4873    2.5901 C   0  0  0  1  0  3  0  0  0  0  0  0
   -4.3049   -5.8966    2.1964 C   0  0  0  1  0  3  0  0  0  0  0  0
    2.2271    0.5740   -0.0161 C   0  0  0  1  0  3  0  0  0  0  0  0
   -3.4422    1.2801   -3.6778 C   0  0  0  1  0  3  0  0  0  0  0  0
    1.6823    1.8274   -0.0042 C   0  0  0  1  0  3  0  0  0  0  0  0
   -2.8434    2.3765   -3.1368 C   0  0  0  1  0  3  0  0  0  0  0  0
   -0.7158   -2.3232    1.4230 H   0  0  0  1  0  1  0  0  0  0  0  0
   -4.9897   -3.5101   -0.0887 H   0  0  0  1  0  1  0  0  0  0  0  0
   -1.4855   -4.0478    2.3370 H   0  0  0  1  0  1  0  0  0  0  0  0
    1.6096   -1.4856   -0.0207 H   0  0  0  1  0  1  0  0  0  0  0  0
   -3.7529   -0.8070   -3.2407 H   0  0  0  1  0  1  0  0  0  0  0  0
   -2.5026   -6.0489    3.3386 H   0  0  0  1  0  1  0  0  0  0  0  0
   -4.7468   -6.7766    2.6399 H   0  0  0  1  0  1  0  0  0  0  0  0
    3.2937    0.4053   -0.0272 H   0  0  0  1  0  1  0  0  0  0  0  0
   -3.9669    1.3114   -4.6213 H   0  0  0  1  0  1  0  0  0  0  0  0
    2.2549    2.7432   -0.0053 H   0  0  0  1  0  1  0  0  0  0  0  0
   -2.8379    3.3569   -3.5898 H   0  0  0  1  0  1  0  0  0  0  0  0
  1 12  1  0  0  0  0
  1 23  1  0  0  0  0
  2 13  1  0  0  0  0
  2 24  1  0  0  0  0
  3  7  1  0  0  0  0
  4  7  2  0  0  0  0
  5  8  1  0  0  0  0
  5 10  1  0  0  0  0
  5 25  1  0  0  0  0
  6  9  1  0  0  0  0
  6 10  2  0  0  0  0
  7 17  1  0  0  0  0
  8  9  2  0  0  0  0
  8 12  1  0  0  0  0
  9 13  1  0  0  0  0
 10 11  1  0  0  0  0
 11 14  2  0  0  0  0
 11 15  1  0  0  0  0
 12 16  2  0  0  0  0
 13 18  2  0  0  0  0
 14 17  1  0  0  0  0
 14 26  1  0  0  0  0
 15 19  2  0  0  0  0
 15 27  1  0  0  0  0
 16 21  1  0  0  0  0
 16 28  1  0  0  0  0
 17 20  2  0  0  0  0
 18 22  1  0  0  0  0
 18 29  1  0  0  0  0
 19 20  1  0  0  0  0
 19 30  1  0  0  0  0
 20 31  1  0  0  0  0
 21 23  2  0  0  0  0
 21 32  1  0  0  0  0
 22 24  2  0  0  0  0
 22 33  1  0  0  0  0
 23 34  1  0  0  0  0
 24 35  1  0  0  0  0
M  END
> <Activity>
6.646

> <Mapped(file=504701.csv.activities,property=Cached(PUBCHEM_COMPOUND_CID))>
6.646

> <PUBCHEM_ATOM_DEF_STEREO_COUNT>
0

> <PUBCHEM_ATOM_UDEF_STEREO_COUNT>
0

> <PUBCHEM_BONDANNOTATIONS>
1  12  8
1  23  8
11  14  8
11  15  8
12  16  8
13  18  8
14  17  8
15  19  8
16  21  8
17  20  8
18  22  8
19  20  8
2  13  8
2  24  8
21  23  8
22  24  8
5  10  8
5  8  8
6  10  8
6  9  8
8  9  8

> <PUBCHEM_BOND_DEF_STEREO_COUNT>
0

> <PUBCHEM_BOND_UDEF_STEREO_COUNT>
0

> <PUBCHEM_CACTVS_COMPLEXITY>
462

> <PUBCHEM_CACTVS_HBOND_ACCEPTOR>
4

> <PUBCHEM_CACTVS_HBOND_DONOR>
1

> <PUBCHEM_CACTVS_ROTATABLE_BOND>
3

> <PUBCHEM_CACTVS_SUBSKEYS>
AAADccB7MABgAAAAAAAAAAAAAAAAAWJEgAAwAAAAAAAAAAAB/AAAHAQUAAAADAiFXwCx0ZbZ0AilAyZiZwCDgK2hGrBpmTggdJqIaKLgmZGUIAhogALoyCcQgIAOAAAAQAAAAAAAAACAAAAAAAAAAAAAAA==

> <PUBCHEM_CACTVS_TAUTO_COUNT>
1

> <PUBCHEM_CACTVS_TPSA>
131

> <PUBCHEM_COMPONENT_COUNT>
1

> <PUBCHEM_COMPOUND_CANONICALIZED>
1

> <PUBCHEM_COMPOUND_CID>
1327610

> <PUBCHEM_COORDINATE_TYPE>
1
5
255

> <PUBCHEM_EXACT_MASS>
353.029269

> <PUBCHEM_HEAVY_ATOM_COUNT>
24

> <PUBCHEM_ISOTOPIC_ATOM_COUNT>
0

> <PUBCHEM_IUPAC_CAS_NAME>
2-(3-nitrophenyl)-4,5-dithiophen-2-yl-1H-imidazole

> <PUBCHEM_IUPAC_INCHI>
InChI=1S/C17H11N3O2S2/c21-20(22)12-5-1-4-11(10-12)17-18-15(13-6-2-8-23-13)16(19-17)14-7-3-9-24-14/h1-10H,(H,18,19)

> <PUBCHEM_IUPAC_INCHIKEY>
ASBJUFFUXNNWAT-UHFFFAOYSA-N

> <PUBCHEM_IUPAC_NAME>
2-(3-nitrophenyl)-4,5-dithiophen-2-yl-1H-imidazole

> <PUBCHEM_IUPAC_OPENEYE_NAME>
2-(3-nitrophenyl)-4,5-bis(2-thienyl)-1H-imidazole

> <PUBCHEM_IUPAC_SYSTEMATIC_NAME>
2-(3-nitrophenyl)-4,5-dithiophen-2-yl-1H-imidazole

> <PUBCHEM_IUPAC_TRADITIONAL_NAME>
2-(3-nitrophenyl)-4,5-bis(2-thienyl)-1H-imidazole

> <PUBCHEM_MOLECULAR_FORMULA>
C17H11N3O2S2

> <PUBCHEM_MOLECULAR_WEIGHT>
353.41814

> <PUBCHEM_MONOISOTOPIC_WEIGHT>
353.029269

> <PUBCHEM_OPENEYE_CAN_SMILES>
C1=CC(=CC(=C1)[N+](=O)[O-])C2=NC(=C(N2)C3=CC=CS3)C4=CC=CS4

> <PUBCHEM_OPENEYE_ISO_SMILES>
C1=CC(=CC(=C1)[N+](=O)[O-])C2=NC(=C(N2)C3=CC=CS3)C4=CC=CS4

> <PUBCHEM_TOTAL_CHARGE>
0

> <PUBCHEM_XLOGP3_AA>
4.3

$$$$
Written by BCL::WriteToMDL,24747377
MBcorina  10171218483D 1   1.00000     0.00000 
CORINA 3.49 0026  01.06.2011
 51 54  0  0  0  0  0  0  0  0999 V2000
   -2.1591    5.0426    3.8340 Cl  0  0  0  1  0  1  0  0  0  0  0  0
   -3.7689    2.8040    5.2970 Cl  0  0  0  1  0  1  0  0  0  0  0  0
   -1.2324   -0.7063   -0.1215 O   0  0  0  1  0  1  0  0  0  0  0  0
   -0.6080   -2.7662   -0.4943 O   0  0  0  1  0  1  0  0  0  0  0  0
   -0.3276    1.2823   -0.1767 N   0  0  0  1  0  3  0  0  0  0  0  0
   -0.1947   -3.9989    1.3034 N   0  0  0  1  0  3  0  0  0  0  0  0
    1.0980   -0.7693   -0.0996 C   0  0  0  1  0  4  0  0  0  0  0  0
    2.2318    0.1902    0.2482 C   0  0  0  1  0  4  0  0  0  0  0  0
    1.0474   -1.8906    0.9419 C   0  0  0  1  0  4  0  0  0  0  0  0
    2.0831    1.4655   -0.5872 C   0  0  0  1  0  4  0  0  0  0  0  0
   -0.2151   -0.0461   -0.1339 C   0  0  0  1  0  3  0  0  0  0  0  0
    0.8097    2.1942   -0.1569 C   0  0  0  1  0  4  0  0  0  0  0  0
    0.6585   -1.2894    2.2940 C   0  0  0  1  0  4  0  0  0  0  0  0
    2.2137    0.5341    1.7066 C   0  0  0  1  0  3  0  0  0  0  0  0
    1.5335   -0.1088    2.6007 C   0  0  0  1  0  3  0  0  0  0  0  0
    0.0221   -2.9158    0.5312 C   0  0  0  1  0  3  0  0  0  0  0  0
   -1.6724    1.8584   -0.2543 C   0  0  0  1  0  4  0  0  0  0  0  0
   -2.1980    2.0962    1.1379 C   0  0  0  1  0  3  0  0  0  0  0  0
   -1.2128   -4.9006    0.9740 C   0  0  0  1  0  3  0  0  0  0  0  0
   -1.9670    3.3054    1.7661 C   0  0  0  1  0  3  0  0  0  0  0  0
   -2.9160    1.1067    1.7838 C   0  0  0  1  0  3  0  0  0  0  0  0
   -2.4494    3.5241    3.0442 C   0  0  0  1  0  3  0  0  0  0  0  0
   -3.3990    1.3237    3.0603 C   0  0  0  1  0  3  0  0  0  0  0  0
   -1.5040   -5.1650   -0.3579 C   0  0  0  1  0  3  0  0  0  0  0  0
   -1.9303   -5.5372    1.9782 C   0  0  0  1  0  3  0  0  0  0  0  0
   -3.1635    2.5313    3.6931 C   0  0  0  1  0  3  0  0  0  0  0  0
   -2.5095   -6.0554   -0.6797 C   0  0  0  1  0  3  0  0  0  0  0  0
   -2.9345   -6.4266    1.6497 C   0  0  0  1  0  3  0  0  0  0  0  0
   -3.2259   -6.6834    0.3225 C   0  0  0  1  0  3  0  0  0  0  0  0
    1.2819   -1.2010   -1.0834 H   0  0  0  1  0  1  0  0  0  0  0  0
    3.1861   -0.2822    0.0155 H   0  0  0  1  0  1  0  0  0  0  0  0
    2.0273   -2.3616    1.0197 H   0  0  0  1  0  1  0  0  0  0  0  0
    2.9459    2.1113   -0.4241 H   0  0  0  1  0  1  0  0  0  0  0  0
    2.0152    1.2042   -1.6432 H   0  0  0  1  0  1  0  0  0  0  0  0
    0.6199    3.0225   -0.8396 H   0  0  0  1  0  1  0  0  0  0  0  0
    0.9412    2.5849    0.8522 H   0  0  0  1  0  1  0  0  0  0  0  0
   -0.3829   -0.9693    2.2616 H   0  0  0  1  0  1  0  0  0  0  0  0
    0.7801   -2.0420    3.0731 H   0  0  0  1  0  1  0  0  0  0  0  0
    2.8082    1.3743    2.0336 H   0  0  0  1  0  1  0  0  0  0  0  0
    1.5992    0.2232    3.6263 H   0  0  0  1  0  1  0  0  0  0  0  0
   -1.6317    2.8046   -0.7939 H   0  0  0  1  0  1  0  0  0  0  0  0
   -2.3333    1.1688   -0.7794 H   0  0  0  1  0  1  0  0  0  0  0  0
    0.3550   -4.1534    2.0875 H   0  0  0  1  0  1  0  0  0  0  0  0
   -1.4097    4.0793    1.2595 H   0  0  0  1  0  1  0  0  0  0  0  0
   -3.0997    0.1638    1.2902 H   0  0  0  1  0  1  0  0  0  0  0  0
   -3.9603    0.5506    3.5640 H   0  0  0  1  0  1  0  0  0  0  0  0
   -0.9451   -4.6746   -1.1411 H   0  0  0  1  0  1  0  0  0  0  0  0
   -1.7029   -5.3374    3.0149 H   0  0  0  1  0  1  0  0  0  0  0  0
   -2.7367   -6.2612   -1.7153 H   0  0  0  1  0  1  0  0  0  0  0  0
   -3.4926   -6.9224    2.4302 H   0  0  0  1  0  1  0  0  0  0  0  0
   -4.0117   -7.3793    0.0683 H   0  0  0  1  0  1  0  0  0  0  0  0
  1 22  1  0  0  0  0
  2 26  1  0  0  0  0
  3 11  2  0  0  0  0
  4 16  2  0  0  0  0
  5 11  1  0  0  0  0
  5 12  1  0  0  0  0
  5 17  1  0  0  0  0
  6 16  1  0  0  0  0
  6 19  1  0  0  0  0
  6 43  1  0  0  0  0
  7  8  1  0  0  0  0
  7  9  1  0  0  0  0
  7 11  1  0  0  0  0
  7 30  1  0  0  0  0
  8 10  1  0  0  0  0
  8 14  1  0  0  0  0
  8 31  1  0  0  0  0
  9 13  1  0  0  0  0
  9 16  1  0  0  0  0
  9 32  1  0  0  0  0
 10 12  1  0  0  0  0
 10 33  1  0  0  0  0
 10 34  1  0  0  0  0
 12 35  1  0  0  0  0
 12 36  1  0  0  0  0
 13 15  1  0  0  0  0
 13 37  1  0  0  0  0
 13 38  1  0  0  0  0
 14 15  2  0  0  0  0
 14 39  1  0  0  0  0
 15 40  1  0  0  0  0
 17 18  1  0  0  0  0
 17 41  1  0  0  0  0
 17 42  1  0  0  0  0
 18 20  2  0  0  0  0
 18 21  1  0  0  0  0
 19 24  2  0  0  0  0
 19 25  1  0  0  0  0
 20 22  1  0  0  0  0
 20 44  1  0  0  0  0
 21 23  2  0  0  0  0
 21 45  1  0  0  0  0
 22 26  2  0  0  0  0
 23 26  1  0  0  0  0
 23 46  1  0  0  0  0
 24 27  1  0  0  0  0
 24 47  1  0  0  0  0
 25 28  2  0  0  0  0
 25 48  1  0  0  0  0
 27 29  2  0  0  0  0
 27 49  1  0  0  0  0
 28 29  1  0  0  0  0
 28 50  1  0  0  0  0
 29 51  1  0  0  0  0
M  END
> <Activity>
0.48384

> <Mapped(file=504701.csv.activities,property=Cached(PUBCHEM_COMPOUND_CID))>
0.48384

> <PUBCHEM_ATOM_DEF_STEREO_COUNT>
3

> <PUBCHEM_ATOM_UDEF_STEREO_COUNT>
0

> <PUBCHEM_BONDANNOTATIONS>
18  20  8
18  21  8
19  24  8
19  25  8
20  22  8
21  23  8
22  26  8
23  26  8
24  27  8
25  28  8
27  29  8
28  29  8
7  30  6
8  31  6
9  16  5

> <PUBCHEM_BOND_DEF_STEREO_COUNT>
0

> <PUBCHEM_BOND_UDEF_STEREO_COUNT>
0

> <PUBCHEM_CACTVS_COMPLEXITY>
634

> <PUBCHEM_CACTVS_HBOND_ACCEPTOR>
2

> <PUBCHEM_CACTVS_HBOND_DONOR>
1

> <PUBCHEM_CACTVS_ROTATABLE_BOND>
4

> <PUBCHEM_CACTVS_SUBSKEYS>
AAADceB7MAAGAAAAAAAAAAAAAAAAAAAAAAA8YIEAAAAAAACBQAAAHgIQAAAADQrBmCQwwIPAAACIAiVSUACCAAAhBwAIikEIZogIIDLBk5GEIAhglgDIyAcdiQAOhAAAIAAAAAQIAABAAAAACAAAAAAAAA==

> <PUBCHEM_CACTVS_TAUTO_COUNT>
6

> <PUBCHEM_CACTVS_TPSA>
49.4

> <PUBCHEM_COMPONENT_COUNT>
1

> <PUBCHEM_COMPOUND_CANONICALIZED>
1

> <PUBCHEM_COMPOUND_CID>
24747377

> <PUBCHEM_COORDINATE_TYPE>
1
5
255

> <PUBCHEM_EXACT_MASS>
428.105833

> <PUBCHEM_HEAVY_ATOM_COUNT>
29

> <PUBCHEM_ISOTOPIC_ATOM_COUNT>
0

> <PUBCHEM_IUPAC_CAS_NAME>
(4aS,8R,8aS)-2-[(3,4-dichlorophenyl)methyl]-1-oxo-N-phenyl-3,4,4a,7,8,8a-hexahydroisoquinoline-8-carboxamide

> <PUBCHEM_IUPAC_INCHI>
InChI=1S/C23H22Cl2N2O2/c24-19-10-9-15(13-20(19)25)14-27-12-11-16-5-4-8-18(21(16)23(27)29)22(28)26-17-6-2-1-3-7-17/h1-7,9-10,13,16,18,21H,8,11-12,14H2,(H,26,28)/t16-,18-,21+/m1/s1

> <PUBCHEM_IUPAC_INCHIKEY>
FOEVREDQDHWIBE-BLIXFSHQSA-N

> <PUBCHEM_IUPAC_NAME>
(4aS,8R,8aS)-2-[(3,4-dichlorophenyl)methyl]-1-oxo-N-phenyl-3,4,4a,7,8,8a-hexahydroisoquinoline-8-carboxamide

> <PUBCHEM_IUPAC_OPENEYE_NAME>
(4aS,8R,8aS)-2-[(3,4-dichlorophenyl)methyl]-1-oxo-N-phenyl-3,4,4a,7,8,8a-hexahydroisoquinoline-8-carboxamide

> <PUBCHEM_IUPAC_SYSTEMATIC_NAME>
(4aS,8R,8aS)-2-[(3,4-dichlorophenyl)methyl]-1-oxidanylidene-N-phenyl-3,4,4a,7,8,8a-hexahydroisoquinoline-8-carboxamide

> <PUBCHEM_IUPAC_TRADITIONAL_NAME>
(4aS,8R,8aS)-2-(3,4-dichlorobenzyl)-1-keto-N-phenyl-3,4,4a,7,8,8a-hexahydroisoquinoline-8-carboxamide

> <PUBCHEM_MOLECULAR_FORMULA>
C23H22Cl2N2O2

> <PUBCHEM_MOLECULAR_WEIGHT>
429.33898

> <PUBCHEM_MONOISOTOPIC_WEIGHT>
428.105833

> <PUBCHEM_OPENEYE_CAN_SMILES>
C1CN(C(=O)C2C1C=CCC2C(=O)NC3=CC=CC=C3)CC4=CC(=C(C=C4)Cl)Cl

> <PUBCHEM_OPENEYE_ISO_SMILES>
C1CN(C(=O)[C@H]2[C@@H]1C=CC[C@H]2C(=O)NC3=CC=CC=C3)CC4=CC(=C(C=C4)Cl)Cl

> <PUBCHEM_TOTAL_CHARGE>
0

> <PUBCHEM_XLOGP3_AA>
4.4

$$$$
Written by BCL::WriteToMDL,1888033
MBcorina  10171218483D 1   1.00000     0.00000 
CORINA 3.49 0026  01.06.2011
 39 42  0  0  0  0  0  0  0  0999 V2000
   -0.0218    1.7577    0.0117 S   0  0  0  1  0  2  0  0  0  0  0  0
    6.6247    7.1962   -0.0230 O   0  0  0  1  0  2  0  0  0  0  0  0
   -1.0896   -0.7899    0.0082 O   0  0  0  1  0  2  0  0  0  0  0  0
    3.8050    6.4385    0.0003 O   0  0  0  1  0  2  0  0  0  0  0  0
    3.3406    8.6112    0.0164 O   0  0  0  1  0  1  0  0  0  0  0  0
    1.0851   -0.7398   -0.0127 N   0  0  0  1  0  2  0  0  0  0  0  0
    7.5583    9.2141   -0.0204 C   0  0  0  1  0  3  0  0  0  0  0  0
    7.8135    7.8297   -0.0308 C   0  0  0  1  0  3  0  0  0  0  0  0
    6.1024    9.3487   -0.0055 C   0  0  0  1  0  3  0  0  0  0  0  0
    5.6075    8.0831   -0.0081 C   0  0  0  1  0  3  0  0  0  0  0  0
    8.6200   10.1219   -0.0249 C   0  0  0  1  0  3  0  0  0  0  0  0
    9.1299    7.3839   -0.0457 C   0  0  0  1  0  3  0  0  0  0  0  0
   -0.6814   -2.0799   -0.0031 C   0  0  0  1  0  3  0  0  0  0  0  0
    0.7216   -2.0515   -0.0166 C   0  0  0  1  0  3  0  0  0  0  0  0
    9.9059    9.6599   -0.0396 C   0  0  0  1  0  3  0  0  0  0  0  0
   10.1633    8.2960   -0.0500 C   0  0  0  1  0  3  0  0  0  0  0  0
   -1.3458   -3.2949   -0.0035 C   0  0  0  1  0  3  0  0  0  0  0  0
    1.4369   -3.2493   -0.0300 C   0  0  0  1  0  3  0  0  0  0  0  0
    4.1817    7.7334    0.0037 C   0  0  0  1  0  3  0  0  0  0  0  0
    0.0021   -0.0041    0.0020 C   0  0  0  1  0  3  0  0  0  0  0  0
   -0.6258   -4.4731   -0.0172 C   0  0  0  1  0  3  0  0  0  0  0  0
    0.7599   -4.4497   -0.0298 C   0  0  0  1  0  3  0  0  0  0  0  0
    2.3786    6.1669    0.0125 C   0  0  0  1  0  4  0  0  0  0  0  0
    1.7562    2.0963   -0.0035 C   0  0  0  1  0  4  0  0  0  0  0  0
    2.1561    4.7119    0.0068 C   0  0  0  1  0  2  0  0  0  0  0  0
    1.9787    3.5514    0.0022 C   0  0  0  1  0  2  0  0  0  0  0  0
    5.5353   10.2677    0.0056 H   0  0  0  1  0  1  0  0  0  0  0  0
    8.4253   11.1841   -0.0175 H   0  0  0  1  0  1  0  0  0  0  0  0
    9.3426    6.3251   -0.0535 H   0  0  0  1  0  1  0  0  0  0  0  0
   10.7276   10.3608   -0.0436 H   0  0  0  1  0  1  0  0  0  0  0  0
   11.1847    7.9455   -0.0612 H   0  0  0  1  0  1  0  0  0  0  0  0
   -2.4254   -3.3210    0.0073 H   0  0  0  1  0  1  0  0  0  0  0  0
    2.5168   -3.2359   -0.0408 H   0  0  0  1  0  1  0  0  0  0  0  0
   -1.1461   -5.4195   -0.0175 H   0  0  0  1  0  1  0  0  0  0  0  0
    1.3125   -5.3776   -0.0401 H   0  0  0  1  0  1  0  0  0  0  0  0
    1.9341    6.5990    0.9091 H   0  0  0  1  0  1  0  0  0  0  0  0
    1.9171    6.6085   -0.8708 H   0  0  0  1  0  1  0  0  0  0  0  0
    2.2177    1.6547    0.8798 H   0  0  0  1  0  1  0  0  0  0  0  0
    2.2007    1.6643   -0.9001 H   0  0  0  1  0  1  0  0  0  0  0  0
  1 20  1  0  0  0  0
  1 24  1  0  0  0  0
  2  8  1  0  0  0  0
  2 10  1  0  0  0  0
  3 13  1  0  0  0  0
  3 20  1  0  0  0  0
  4 19  1  0  0  0  0
  4 23  1  0  0  0  0
  5 19  2  0  0  0  0
  6 14  1  0  0  0  0
  6 20  2  0  0  0  0
  7  8  1  0  0  0  0
  7  9  1  0  0  0  0
  7 11  2  0  0  0  0
  8 12  2  0  0  0  0
  9 10  2  0  0  0  0
  9 27  1  0  0  0  0
 10 19  1  0  0  0  0
 11 15  1  0  0  0  0
 11 28  1  0  0  0  0
 12 16  1  0  0  0  0
 12 29  1  0  0  0  0
 13 14  1  0  0  0  0
 13 17  2  0  0  0  0
 14 18  2  0  0  0  0
 15 16  2  0  0  0  0
 15 30  1  0  0  0  0
 16 31  1  0  0  0  0
 17 21  1  0  0  0  0
 17 32  1  0  0  0  0
 18 22  1  0  0  0  0
 18 33  1  0  0  0  0
 21 22  2  0  0  0  0
 21 34  1  0  0  0  0
 22 35  1  0  0  0  0
 23 25  1  0  0  0  0
 23 36  1  0  0  0  0
 23 37  1  0  0  0  0
 24 26  1  0  0  0  0
 24 38  1  0  0  0  0
 24 39  1  0  0  0  0
 25 26  3  0  0  0  0
M  END
> <Activity>
5.523

> <Mapped(file=504699.csv.activities,property=Cached(PUBCHEM_COMPOUND_CID))>
5.523

> <PUBCHEM_ATOM_DEF_STEREO_COUNT>
0

> <PUBCHEM_ATOM_UDEF_STEREO_COUNT>
0

> <PUBCHEM_BONDANNOTATIONS>
11  15  8
12  16  8
13  14  8
13  17  8
14  18  8
15  16  8
17  21  8
18  22  8
2  10  8
2  8  8
21  22  8
3  13  8
3  20  8
6  14  8
6  20  8
7  11  8
7  8  8
7  9  8
8  12  8
9  10  8

> <PUBCHEM_BOND_DEF_STEREO_COUNT>
0

> <PUBCHEM_BOND_UDEF_STEREO_COUNT>
0

> <PUBCHEM_CACTVS_COMPLEXITY>
571

> <PUBCHEM_CACTVS_HBOND_ACCEPTOR>
5

> <PUBCHEM_CACTVS_HBOND_DONOR>
0

> <PUBCHEM_CACTVS_ROTATABLE_BOND>
5

> <PUBCHEM_CACTVS_SUBSKEYS>
AAADccB6OABAAAAAAAAAAAAAAAAAAWJAAAAwYAAAAAAAAFgB/gAAHgQAAAAADAyl3gKwzvIIFEjoE6TyXAaC2CBvYjAImCH3bNgPJrLEtb+POSjkxBFa6YeY7qzuAAAAAAAIEAAAAAAAABAgAAAAAAAAAA==

> <PUBCHEM_CACTVS_TAUTO_COUNT>
1

> <PUBCHEM_CACTVS_TPSA>
90.8

> <PUBCHEM_COMPONENT_COUNT>
1

> <PUBCHEM_COMPOUND_CANONICALIZED>
1

> <PUBCHEM_COMPOUND_CID>
1888033

> <PUBCHEM_COORDINATE_TYPE>
1
5
255

> <PUBCHEM_EXACT_MASS>
363.056529

> <PUBCHEM_HEAVY_ATOM_COUNT>
26

> <PUBCHEM_ISOTOPIC_ATOM_COUNT>
0

> <PUBCHEM_IUPAC_CAS_NAME>
2-benzofurancarboxylic acid 4-(1,3-benzoxazol-2-ylthio)but-2-ynyl ester

> <PUBCHEM_IUPAC_INCHI>
InChI=1S/C20H13NO4S/c22-19(18-13-14-7-1-3-9-16(14)24-18)23-11-5-6-12-26-20-21-15-8-2-4-10-17(15)25-20/h1-4,7-10,13H,11-12H2

> <PUBCHEM_IUPAC_INCHIKEY>
CDCFSINNCBTHAU-UHFFFAOYSA-N

> <PUBCHEM_IUPAC_NAME>
4-(1,3-benzoxazol-2-ylsulfanyl)but-2-ynyl 1-benzofuran-2-carboxylate

> <PUBCHEM_IUPAC_OPENEYE_NAME>
4-(1,3-benzoxazol-2-ylsulfanyl)but-2-ynyl benzofuran-2-carboxylate

> <PUBCHEM_IUPAC_SYSTEMATIC_NAME>
4-(1,3-benzoxazol-2-ylsulfanyl)but-2-ynyl 1-benzofuran-2-carboxylate

> <PUBCHEM_IUPAC_TRADITIONAL_NAME>
coumarilic acid 4-(1,3-benzoxazol-2-ylthio)but-2-ynyl ester

> <PUBCHEM_MOLECULAR_FORMULA>
C20H13NO4S

> <PUBCHEM_MOLECULAR_WEIGHT>
363.38652

> <PUBCHEM_MONOISOTOPIC_WEIGHT>
363.056529

> <PUBCHEM_OPENEYE_CAN_SMILES>
C1=CC=C2C(=C1)C=C(O2)C(=O)OCC#CCSC3=NC4=CC=CC=C4O3

> <PUBCHEM_OPENEYE_ISO_SMILES>
C1=CC=C2C(=C1)C=C(O2)C(=O)OCC#CCSC3=NC4=CC=CC=C4O3

> <PUBCHEM_TOTAL_CHARGE>
0

> <PUBCHEM_XLOGP3_AA>
5

$$$$
Written by BCL::WriteToMDL,749132
MBcorina  10171218483D 1   1.00000     0.00000 
CORINA 3.49 0026  01.06.2011
 33 35  0  0  0  0  0  0  0  0999 V2000
   -0.0162    1.3452    0.0094 O   0  0  0  1  0  2  0  0  0  0  0  0
    1.0639   -0.5980   -0.0113 O   0  0  0  1  0  1  0  0  0  0  0  0
   -2.5340   -0.2227    0.0251 N   0  0  0  1  0  3  0  0  0  0  0  0
   -2.6937   -2.4046    0.0136 N   0  0  0  1  0  2  0  0  0  0  0  0
   -3.3946   -1.2800    0.0268 C   0  0  0  1  0  3  0  0  0  0  0  0
   -4.8386   -1.0249    0.0417 C   0  0  0  1  0  3  0  0  0  0  0  0
   -1.2533   -0.7518    0.0100 C   0  0  0  1  0  3  0  0  0  0  0  0
   -5.2850    0.3170    0.0539 C   0  0  0  1  0  3  0  0  0  0  0  0
   -1.3977   -2.1270    0.0032 C   0  0  0  1  0  3  0  0  0  0  0  0
   -2.9801    1.0712    0.0419 C   0  0  0  1  0  3  0  0  0  0  0  0
   -4.2847    1.3846    0.0510 C   0  0  0  1  0  3  0  0  0  0  0  0
   -5.7713   -2.0624    0.0437 C   0  0  0  1  0  3  0  0  0  0  0  0
   -6.6545    0.5871    0.0673 C   0  0  0  1  0  3  0  0  0  0  0  0
    0.0021   -0.0041    0.0020 C   0  0  0  1  0  3  0  0  0  0  0  0
   -0.2771   -3.1344   -0.0125 C   0  0  0  1  0  4  0  0  0  0  0  0
   -7.1065   -1.7676    0.0574 C   0  0  0  1  0  3  0  0  0  0  0  0
   -7.5455   -0.4500    0.0684 C   0  0  0  1  0  3  0  0  0  0  0  0
    1.2481    2.0112    0.0009 C   0  0  0  1  0  4  0  0  0  0  0  0
    1.0270    3.5251    0.0112 C   0  0  0  1  0  4  0  0  0  0  0  0
   -2.2541    1.8708    0.0397 H   0  0  0  1  0  1  0  0  0  0  0  0
   -4.5946    2.4192    0.0600 H   0  0  0  1  0  1  0  0  0  0  0  0
   -5.4412   -3.0907    0.0341 H   0  0  0  1  0  1  0  0  0  0  0  0
   -7.0076    1.6077    0.0770 H   0  0  0  1  0  1  0  0  0  0  0  0
   -0.0160   -3.3715   -1.0439 H   0  0  0  1  0  1  0  0  0  0  0  0
    0.5926   -2.7184    0.4960 H   0  0  0  1  0  1  0  0  0  0  0  0
   -0.5973   -4.0421    0.4991 H   0  0  0  1  0  1  0  0  0  0  0  0
   -7.8293   -2.5700    0.0586 H   0  0  0  1  0  1  0  0  0  0  0  0
   -8.6052   -0.2418    0.0791 H   0  0  0  1  0  1  0  0  0  0  0  0
    1.8175    1.7212    0.8840 H   0  0  0  1  0  1  0  0  0  0  0  0
    1.8005    1.7307   -0.8959 H   0  0  0  1  0  1  0  0  0  0  0  0
    1.9914    4.0332    0.0047 H   0  0  0  1  0  1  0  0  0  0  0  0
    0.4576    3.8152   -0.8719 H   0  0  0  1  0  1  0  0  0  0  0  0
    0.4746    3.8056    0.9080 H   0  0  0  1  0  1  0  0  0  0  0  0
  1 14  1  0  0  0  0
  1 18  1  0  0  0  0
  2 14  2  0  0  0  0
  3  5  1  0  0  0  0
  3  7  1  0  0  0  0
  3 10  1  0  0  0  0
  4  5  2  0  0  0  0
  4  9  1  0  0  0  0
  5  6  1  0  0  0  0
  6  8  1  0  0  0  0
  6 12  2  0  0  0  0
  7  9  2  0  0  0  0
  7 14  1  0  0  0  0
  8 11  1  0  0  0  0
  8 13  2  0  0  0  0
  9 15  1  0  0  0  0
 10 11  2  0  0  0  0
 10 20  1  0  0  0  0
 11 21  1  0  0  0  0
 12 16  1  0  0  0  0
 12 22  1  0  0  0  0
 13 17  1  0  0  0  0
 13 23  1  0  0  0  0
 15 24  1  0  0  0  0
 15 25  1  0  0  0  0
 15 26  1  0  0  0  0
 16 17  2  0  0  0  0
 16 27  1  0  0  0  0
 17 28  1  0  0  0  0
 18 19  1  0  0  0  0
 18 29  1  0  0  0  0
 18 30  1  0  0  0  0
 19 31  1  0  0  0  0
 19 32  1  0  0  0  0
 19 33  1  0  0  0  0
M  END
> <Activity>
3.625

> <Mapped(file=504701.csv.activities,property=Cached(PUBCHEM_COMPOUND_CID))>
3.625

> <PUBCHEM_ATOM_DEF_STEREO_COUNT>
0

> <PUBCHEM_ATOM_UDEF_STEREO_COUNT>
0

> <PUBCHEM_BONDANNOTATIONS>
10  11  8
12  16  8
13  17  8
16  17  8
3  10  8
3  5  8
3  7  8
4  5  8
4  9  8
5  6  8
6  12  8
6  8  8
7  9  8
8  11  8
8  13  8

> <PUBCHEM_BOND_DEF_STEREO_COUNT>
0

> <PUBCHEM_BOND_UDEF_STEREO_COUNT>
0

> <PUBCHEM_CACTVS_COMPLEXITY>
347

> <PUBCHEM_CACTVS_HBOND_ACCEPTOR>
2

> <PUBCHEM_CACTVS_HBOND_DONOR>
0

> <PUBCHEM_CACTVS_ROTATABLE_BOND>
3

> <PUBCHEM_CACTVS_SUBSKEYS>
AAADccBzMAAAAAAAAAAAAAAAAAAAAWAAAAA8QAAAAAAAAFix8AAAHgAAAAAADAjhnwY/uN8MHACoAzb3bASCgC03EqAJ2CG4fNiKbvrAubmXMYhugALY6WcQgIAOgAAAAAAQAAAAAAAAACAAAAAAAAAAAA==

> <PUBCHEM_CACTVS_TAUTO_COUNT>
1

> <PUBCHEM_CACTVS_TPSA>
43.6

> <PUBCHEM_COMPONENT_COUNT>
1

> <PUBCHEM_COMPOUND_CANONICALIZED>
1

> <PUBCHEM_COMPOUND_CID>
749132

> <PUBCHEM_COORDINATE_TYPE>
1
5
255

> <PUBCHEM_EXACT_MASS>
254.105528

> <PUBCHEM_HEAVY_ATOM_COUNT>
19

> <PUBCHEM_ISOTOPIC_ATOM_COUNT>
0

> <PUBCHEM_IUPAC_CAS_NAME>
2-methyl-3-imidazo[2,1-a]isoquinolinecarboxylic acid ethyl ester

> <PUBCHEM_IUPAC_INCHI>
InChI=1S/C15H14N2O2/c1-3-19-15(18)13-10(2)16-14-12-7-5-4-6-11(12)8-9-17(13)14/h4-9H,3H2,1-2H3

> <PUBCHEM_IUPAC_INCHIKEY>
LQOBCPWHDVTSJV-UHFFFAOYSA-N

> <PUBCHEM_IUPAC_NAME>
ethyl 2-methylimidazo[2,1-a]isoquinoline-3-carboxylate

> <PUBCHEM_IUPAC_OPENEYE_NAME>
ethyl 2-methylimidazo[2,1-a]isoquinoline-3-carboxylate

> <PUBCHEM_IUPAC_SYSTEMATIC_NAME>
ethyl 2-methylimidazo[2,1-a]isoquinoline-3-carboxylate

> <PUBCHEM_IUPAC_TRADITIONAL_NAME>
2-methylimidaz[2,1-a]isoquinoline-3-carboxylic acid ethyl ester

> <PUBCHEM_MOLECULAR_FORMULA>
C15H14N2O2

> <PUBCHEM_MOLECULAR_WEIGHT>
254.28386

> <PUBCHEM_MONOISOTOPIC_WEIGHT>
254.105528

> <PUBCHEM_OPENEYE_CAN_SMILES>
CCOC(=O)C1=C(N=C2N1C=CC3=CC=CC=C32)C

> <PUBCHEM_OPENEYE_ISO_SMILES>
CCOC(=O)C1=C(N=C2N1C=CC3=CC=CC=C32)C

> <PUBCHEM_TOTAL_CHARGE>
0

> <PUBCHEM_XLOGP3_AA>
4

$$$$
Written by BCL::WriteToMDL,1517476
MBcorina  10171218483D 1   1.00000     0.00000 
CORINA 3.49 0026  01.06.2011
 45 48  0  0  0  0  0  0  0  0999 V2000
    0.6188    1.6699    0.3078 S   0  0  0  1  0  2  0  0  0  0  0  0
   10.4686    3.0558    2.5994 O   0  5  0  1  0  1  0  0  0  0  0  0
    9.5376    5.1382    2.6084 O   0  0  0  1  0  1  0  0  0  0  0  0
    3.2174    2.2645    0.9351 N   0  0  0  1  0  3  0  0  0  0  0  0
    2.8135    0.0878    0.6247 N   0  0  0  1  0  2  0  0  0  0  0  0
    9.4184    3.8363    2.4495 N   0  3  0  1  0  3  0  0  0  0  0  0
    0.0021   -0.0041    0.0020 C   0  0  0  1  0  4  0  0  0  0  0  0
   -1.4918    0.0385   -0.1918 C   0  0  0  1  0  3  0  0  0  0  0  0
    0.6538   -0.5609   -1.2375 C   0  0  0  1  0  3  0  0  0  0  0  0
    2.2644    1.3260    0.6313 C   0  0  0  1  0  3  0  0  0  0  0  0
    4.3974    1.5973    1.1245 C   0  0  0  1  0  3  0  0  0  0  0  0
   -2.3085   -0.7994    0.5443 C   0  0  0  1  0  3  0  0  0  0  0  0
    0.6465    0.1708   -2.4103 C   0  0  0  1  0  3  0  0  0  0  0  0
   -2.0458    0.9195   -1.1017 C   0  0  0  1  0  3  0  0  0  0  0  0
    1.2638   -1.8008   -1.2001 C   0  0  0  1  0  3  0  0  0  0  0  0
    5.6479    2.1549    1.4547 C   0  0  0  1  0  3  0  0  0  0  0  0
    4.0821    0.1600    0.9089 C   0  0  0  1  0  3  0  0  0  0  0  0
    1.2443   -0.3400   -3.5473 C   0  0  0  1  0  3  0  0  0  0  0  0
   -3.6788   -0.7603    0.3664 C   0  0  0  1  0  3  0  0  0  0  0  0
   -3.4161    0.9586   -1.2795 C   0  0  0  1  0  3  0  0  0  0  0  0
    1.8616   -2.3115   -2.3370 C   0  0  0  1  0  3  0  0  0  0  0  0
    6.7795    1.3227    1.6166 C   0  0  0  1  0  3  0  0  0  0  0  0
    5.7839    3.5524    1.6215 C   0  0  0  1  0  3  0  0  0  0  0  0
   -4.2324    0.1169   -0.5472 C   0  0  0  1  0  3  0  0  0  0  0  0
    1.8497   -1.5822   -3.5113 C   0  0  0  1  0  3  0  0  0  0  0  0
    7.9850    1.8757    1.9361 C   0  0  0  1  0  3  0  0  0  0  0  0
    7.0009    4.0796    1.9409 C   0  0  0  1  0  3  0  0  0  0  0  0
    8.1037    3.2500    2.1023 C   0  0  0  1  0  3  0  0  0  0  0  0
    0.2398   -0.6403    0.8546 H   0  0  0  1  0  1  0  0  0  0  0  0
    0.1735    1.1413   -2.4384 H   0  0  0  1  0  1  0  0  0  0  0  0
   -1.8759   -1.4848    1.2581 H   0  0  0  1  0  1  0  0  0  0  0  0
    1.2736   -2.3703   -0.2825 H   0  0  0  1  0  1  0  0  0  0  0  0
   -1.4081    1.5775   -1.6734 H   0  0  0  1  0  1  0  0  0  0  0  0
    3.0814    3.2227    0.9996 H   0  0  0  1  0  1  0  0  0  0  0  0
    4.7738   -0.6668    0.9754 H   0  0  0  1  0  1  0  0  0  0  0  0
    1.2380    0.2313   -4.4638 H   0  0  0  1  0  1  0  0  0  0  0  0
   -4.3168   -1.4155    0.9410 H   0  0  0  1  0  1  0  0  0  0  0  0
    2.3385   -3.2801   -2.3077 H   0  0  0  1  0  1  0  0  0  0  0  0
   -3.8490    1.6471   -1.9901 H   0  0  0  1  0  1  0  0  0  0  0  0
    6.6898    0.2541    1.4883 H   0  0  0  1  0  1  0  0  0  0  0  0
    4.9283    4.1994    1.4963 H   0  0  0  1  0  1  0  0  0  0  0  0
   -5.3030    0.1472   -0.6864 H   0  0  0  1  0  1  0  0  0  0  0  0
    2.3165   -1.9814   -4.3996 H   0  0  0  1  0  1  0  0  0  0  0  0
    8.8509    1.2424    2.0607 H   0  0  0  1  0  1  0  0  0  0  0  0
    7.1077    5.1467    2.0689 H   0  0  0  1  0  1  0  0  0  0  0  0
  1  7  1  0  0  0  0
  1 10  1  0  0  0  0
  2  6  1  0  0  0  0
  3  6  2  0  0  0  0
  4 10  1  0  0  0  0
  4 11  1  0  0  0  0
  4 34  1  0  0  0  0
  5 10  2  0  0  0  0
  5 17  1  0  0  0  0
  6 28  1  0  0  0  0
  7  8  1  0  0  0  0
  7  9  1  0  0  0  0
  7 29  1  0  0  0  0
  8 12  2  0  0  0  0
  8 14  1  0  0  0  0
  9 13  2  0  0  0  0
  9 15  1  0  0  0  0
 11 16  1  0  0  0  0
 11 17  2  0  0  0  0
 12 19  1  0  0  0  0
 12 31  1  0  0  0  0
 13 18  1  0  0  0  0
 13 30  1  0  0  0  0
 14 20  2  0  0  0  0
 14 33  1  0  0  0  0
 15 21  2  0  0  0  0
 15 32  1  0  0  0  0
 16 22  2  0  0  0  0
 16 23  1  0  0  0  0
 17 35  1  0  0  0  0
 18 25  2  0  0  0  0
 18 36  1  0  0  0  0
 19 24  2  0  0  0  0
 19 37  1  0  0  0  0
 20 24  1  0  0  0  0
 20 39  1  0  0  0  0
 21 25  1  0  0  0  0
 21 38  1  0  0  0  0
 22 26  1  0  0  0  0
 22 40  1  0  0  0  0
 23 27  2  0  0  0  0
 23 41  1  0  0  0  0
 24 42  1  0  0  0  0
 25 43  1  0  0  0  0
 26 28  2  0  0  0  0
 26 44  1  0  0  0  0
 27 28  1  0  0  0  0
 27 45  1  0  0  0  0
M  END
> <Activity>
5.72

> <Mapped(file=504701.csv.activities,property=Cached(PUBCHEM_COMPOUND_CID))>
5.72

> <PUBCHEM_ATOM_DEF_STEREO_COUNT>
0

> <PUBCHEM_ATOM_UDEF_STEREO_COUNT>
0

> <PUBCHEM_BONDANNOTATIONS>
11  17  8
12  19  8
13  18  8
14  20  8
15  21  8
16  22  8
16  23  8
18  25  8
19  24  8
20  24  8
21  25  8
22  26  8
23  27  8
26  28  8
27  28  8
4  10  8
4  11  8
5  10  8
5  17  8
8  12  8
8  14  8
9  13  8
9  15  8

> <PUBCHEM_BOND_DEF_STEREO_COUNT>
0

> <PUBCHEM_BOND_UDEF_STEREO_COUNT>
0

> <PUBCHEM_CACTVS_COMPLEXITY>
477

> <PUBCHEM_CACTVS_HBOND_ACCEPTOR>
3

> <PUBCHEM_CACTVS_HBOND_DONOR>
1

> <PUBCHEM_CACTVS_ROTATABLE_BOND>
5

> <PUBCHEM_CACTVS_SUBSKEYS>
AAADceB7MABAAAAAAAAAAAAAAAAAAWAAAAAwYMAAAAAAAAAB1AAAHAQUAAAADAjFXgS90JbZ0AihAzRnZwCC0i3xErAp2SA4dJqIaKLgmZGUIAhokAJIyCcQgMAOCAAAAAAAAAAQAAAAAAAAAAAAAAAAAA==

> <PUBCHEM_CACTVS_TAUTO_COUNT>
2

> <PUBCHEM_CACTVS_TPSA>
99.8

> <PUBCHEM_COMPONENT_COUNT>
1

> <PUBCHEM_COMPOUND_CANONICALIZED>
1

> <PUBCHEM_COMPOUND_CID>
1517476

> <PUBCHEM_COORDINATE_TYPE>
1
5
255

> <PUBCHEM_EXACT_MASS>
387.104148

> <PUBCHEM_HEAVY_ATOM_COUNT>
28

> <PUBCHEM_ISOTOPIC_ATOM_COUNT>
0

> <PUBCHEM_IUPAC_CAS_NAME>
2-[(diphenylmethyl)thio]-5-(4-nitrophenyl)-1H-imidazole

> <PUBCHEM_IUPAC_INCHI>
InChI=1S/C22H17N3O2S/c26-25(27)19-13-11-16(12-14-19)20-15-23-22(24-20)28-21(17-7-3-1-4-8-17)18-9-5-2-6-10-18/h1-15,21H,(H,23,24)

> <PUBCHEM_IUPAC_INCHIKEY>
WWDHGMDMNFLVLV-UHFFFAOYSA-N

> <PUBCHEM_IUPAC_NAME>
2-benzhydrylsulfanyl-5-(4-nitrophenyl)-1H-imidazole

> <PUBCHEM_IUPAC_OPENEYE_NAME>
2-benzhydrylsulfanyl-5-(4-nitrophenyl)-1H-imidazole

> <PUBCHEM_IUPAC_SYSTEMATIC_NAME>
2-(diphenylmethyl)sulfanyl-5-(4-nitrophenyl)-1H-imidazole

> <PUBCHEM_IUPAC_TRADITIONAL_NAME>
2-(benzhydrylthio)-5-(4-nitrophenyl)-1H-imidazole

> <PUBCHEM_MOLECULAR_FORMULA>
C22H17N3O2S

> <PUBCHEM_MOLECULAR_WEIGHT>
387.45428

> <PUBCHEM_MONOISOTOPIC_WEIGHT>
387.104148

> <PUBCHEM_OPENEYE_CAN_SMILES>
C1=CC=C(C=C1)C(C2=CC=CC=C2)SC3=NC=C(N3)C4=CC=C(C=C4)[N+](=O)[O-]

> <PUBCHEM_OPENEYE_ISO_SMILES>
C1=CC=C(C=C1)C(C2=CC=CC=C2)SC3=NC=C(N3)C4=CC=C(C=C4)[N+](=O)[O-]

> <PUBCHEM_TOTAL_CHARGE>
0

> <PUBCHEM_XLOGP3_AA>
5.6

$$$$
Written by BCL::WriteToMDL,4879906
MBcorina  10171218483D 1   1.00000     0.00000 
CORINA 3.49 0026  01.06.2011
 47 49  0  0  0  0  0  0  0  0999 V2000
    1.9785    3.6056   -0.4800 S   0  0  0  1  0  4  0  0  0  0  0  0
    3.8054    1.9029   -4.1246 F   0  0  0  1  0  1  0  0  0  0  0  0
    1.8289    2.0025   -2.9831 F   0  0  0  1  0  1  0  0  0  0  0  0
    3.7930    1.7413   -1.8458 F   0  0  0  1  0  1  0  0  0  0  0  0
    1.6332    4.5502    0.5239 O   0  0  0  1  0  1  0  0  0  0  0  0
    2.7732    2.4556   -0.2247 O   0  0  0  1  0  1  0  0  0  0  0  0
   -0.9552    4.6452    0.4611 O   0  0  0  1  0  1  0  0  0  0  0  0
    0.5515    3.0561   -1.1157 N   0  0  0  1  0  3  0  0  0  0  0  0
   -1.4916    6.0785   -1.1453 N   0  0  0  1  0  3  0  0  0  0  0  0
   -0.4923    3.8918   -1.7271 C   0  0  0  1  0  4  0  0  0  0  0  0
   -1.6413    2.9527   -2.1508 C   0  0  0  1  0  4  0  0  0  0  0  0
    0.1202    1.6474   -1.1681 C   0  0  0  1  0  4  0  0  0  0  0  0
   -1.4279    1.7116   -1.2445 C   0  0  0  1  0  4  0  0  0  0  0  0
   -0.9959    4.8979   -0.7245 C   0  0  0  1  0  3  0  0  0  0  0  0
    2.8021    4.5078   -1.7498 C   0  0  0  1  0  3  0  0  0  0  0  0
    3.3221    3.8424   -2.8445 C   0  0  0  1  0  3  0  0  0  0  0  0
    2.9233    5.8813   -1.6543 C   0  0  0  1  0  3  0  0  0  0  0  0
   -1.8975    7.0392   -0.2125 C   0  0  0  1  0  3  0  0  0  0  0  0
    3.9682    4.5500   -3.8405 C   0  0  0  1  0  3  0  0  0  0  0  0
    3.1849    2.3455   -2.9514 C   0  0  0  1  0  4  0  0  0  0  0  0
    3.5696    6.5892   -2.6506 C   0  0  0  1  0  3  0  0  0  0  0  0
    4.0941    5.9234   -3.7424 C   0  0  0  1  0  3  0  0  0  0  0  0
   -1.8807    8.3866   -0.5490 C   0  0  0  1  0  3  0  0  0  0  0  0
   -2.3234    6.6472    1.0496 C   0  0  0  1  0  3  0  0  0  0  0  0
   -2.2819    9.3323    0.3738 C   0  0  0  1  0  3  0  0  0  0  0  0
   -1.4246    8.8162   -1.9196 C   0  0  0  1  0  4  0  0  0  0  0  0
   -2.7235    7.5981    1.9682 C   0  0  0  1  0  3  0  0  0  0  0  0
   -2.7001    8.9390    1.6320 C   0  0  0  1  0  3  0  0  0  0  0  0
   -0.0916    4.4050   -2.6012 H   0  0  0  1  0  1  0  0  0  0  0  0
   -2.6090    3.4134   -1.9522 H   0  0  0  1  0  1  0  0  0  0  0  0
   -1.5503    2.6823   -3.2028 H   0  0  0  1  0  1  0  0  0  0  0  0
    0.5261    1.1591   -2.0541 H   0  0  0  1  0  1  0  0  0  0  0  0
    0.4337    1.1209   -0.2666 H   0  0  0  1  0  1  0  0  0  0  0  0
   -1.8648    1.8681   -0.2583 H   0  0  0  1  0  1  0  0  0  0  0  0
   -1.8319    0.8131   -1.7109 H   0  0  0  1  0  1  0  0  0  0  0  0
   -1.5669    6.2621   -2.0948 H   0  0  0  1  0  1  0  0  0  0  0  0
    2.5129    6.4016   -0.8015 H   0  0  0  1  0  1  0  0  0  0  0  0
    4.3750    4.0302   -4.6953 H   0  0  0  1  0  1  0  0  0  0  0  0
    3.6640    7.6624   -2.5762 H   0  0  0  1  0  1  0  0  0  0  0  0
    4.5992    6.4763   -4.5205 H   0  0  0  1  0  1  0  0  0  0  0  0
   -2.3422    5.5999    1.3127 H   0  0  0  1  0  1  0  0  0  0  0  0
   -2.2687   10.3802    0.1128 H   0  0  0  1  0  1  0  0  0  0  0  0
   -2.2800    8.8458   -2.5945 H   0  0  0  1  0  1  0  0  0  0  0  0
   -0.9752    9.8073   -1.8590 H   0  0  0  1  0  1  0  0  0  0  0  0
   -0.6887    8.1060   -2.2968 H   0  0  0  1  0  1  0  0  0  0  0  0
   -3.0552    7.2938    2.9499 H   0  0  0  1  0  1  0  0  0  0  0  0
   -3.0131    9.6806    2.3521 H   0  0  0  1  0  1  0  0  0  0  0  0
  1  5  2  0  0  0  0
  1  6  2  0  0  0  0
  1  8  1  0  0  0  0
  1 15  1  0  0  0  0
  2 20  1  0  0  0  0
  3 20  1  0  0  0  0
  4 20  1  0  0  0  0
  7 14  2  0  0  0  0
  8 10  1  0  0  0  0
  8 12  1  0  0  0  0
  9 14  1  0  0  0  0
  9 18  1  0  0  0  0
  9 36  1  0  0  0  0
 10 11  1  0  0  0  0
 10 14  1  0  0  0  0
 10 29  1  0  0  0  0
 11 13  1  0  0  0  0
 11 30  1  0  0  0  0
 11 31  1  0  0  0  0
 12 13  1  0  0  0  0
 12 32  1  0  0  0  0
 12 33  1  0  0  0  0
 13 34  1  0  0  0  0
 13 35  1  0  0  0  0
 15 16  1  0  0  0  0
 15 17  2  0  0  0  0
 16 19  2  0  0  0  0
 16 20  1  0  0  0  0
 17 21  1  0  0  0  0
 17 37  1  0  0  0  0
 18 23  1  0  0  0  0
 18 24  2  0  0  0  0
 19 22  1  0  0  0  0
 19 38  1  0  0  0  0
 21 22  2  0  0  0  0
 21 39  1  0  0  0  0
 22 40  1  0  0  0  0
 23 25  2  0  0  0  0
 23 26  1  0  0  0  0
 24 27  1  0  0  0  0
 24 41  1  0  0  0  0
 25 28  1  0  0  0  0
 25 42  1  0  0  0  0
 26 43  1  0  0  0  0
 26 44  1  0  0  0  0
 26 45  1  0  0  0  0
 27 28  2  0  0  0  0
 27 46  1  0  0  0  0
 28 47  1  0  0  0  0
M  END
> <Activity>
0.35164

> <Mapped(file=504701.csv.activities,property=Cached(PUBCHEM_COMPOUND_CID))>
0.35164

> <PUBCHEM_ATOM_DEF_STEREO_COUNT>
0

> <PUBCHEM_ATOM_UDEF_STEREO_COUNT>
1

> <PUBCHEM_BONDANNOTATIONS>
10  14  3
15  16  8
15  17  8
16  19  8
17  21  8
18  23  8
18  24  8
19  22  8
21  22  8
23  25  8
24  27  8
25  28  8
27  28  8

> <PUBCHEM_BOND_DEF_STEREO_COUNT>
0

> <PUBCHEM_BOND_UDEF_STEREO_COUNT>
0

> <PUBCHEM_CACTVS_COMPLEXITY>
662

> <PUBCHEM_CACTVS_HBOND_ACCEPTOR>
7

> <PUBCHEM_CACTVS_HBOND_DONOR>
1

> <PUBCHEM_CACTVS_ROTATABLE_BOND>
4

> <PUBCHEM_CACTVS_SUBSKEYS>
AAADceB7MYBAAAAAAAAAAAAAAAAAAWAAAAAwYAAAAAAAAAABQAAAHwQQQAAADCjB2BQywYLAAAKIAiVSUHDCABAhAgAIiBmIZIgIYDLAkbGUIAhglADIyAcYgQAOAAAAAAAGAAAAAAAAAAwAAAAAAAAAAA==

> <PUBCHEM_CACTVS_TAUTO_COUNT>
3

> <PUBCHEM_CACTVS_TPSA>
74.9

> <PUBCHEM_COMPONENT_COUNT>
1

> <PUBCHEM_COMPOUND_CANONICALIZED>
1

> <PUBCHEM_COMPOUND_CID>
4879906

> <PUBCHEM_COORDINATE_TYPE>
1
5
255

> <PUBCHEM_EXACT_MASS>
412.106848

> <PUBCHEM_HEAVY_ATOM_COUNT>
28

> <PUBCHEM_ISOTOPIC_ATOM_COUNT>
0

> <PUBCHEM_IUPAC_CAS_NAME>
N-(2-methylphenyl)-1-[2-(trifluoromethyl)phenyl]sulfonyl-2-pyrrolidinecarboxamide

> <PUBCHEM_IUPAC_INCHI>
InChI=1S/C19H19F3N2O3S/c1-13-7-2-4-9-15(13)23-18(25)16-10-6-12-24(16)28(26,27)17-11-5-3-8-14(17)19(20,21)22/h2-5,7-9,11,16H,6,10,12H2,1H3,(H,23,25)

> <PUBCHEM_IUPAC_INCHIKEY>
OSNAZRTWDFNNGW-UHFFFAOYSA-N

> <PUBCHEM_IUPAC_NAME>
N-(2-methylphenyl)-1-[2-(trifluoromethyl)phenyl]sulfonylpyrrolidine-2-carboxamide

> <PUBCHEM_IUPAC_OPENEYE_NAME>
N-(o-tolyl)-1-[2-(trifluoromethyl)phenyl]sulfonyl-pyrrolidine-2-carboxamide

> <PUBCHEM_IUPAC_SYSTEMATIC_NAME>
N-(2-methylphenyl)-1-[2-(trifluoromethyl)phenyl]sulfonyl-pyrrolidine-2-carboxamide

> <PUBCHEM_IUPAC_TRADITIONAL_NAME>
N-(o-tolyl)-1-[2-(trifluoromethyl)phenyl]sulfonyl-pyrrolidine-2-carboxamide

> <PUBCHEM_MOLECULAR_FORMULA>
C19H19F3N2O3S

> <PUBCHEM_MOLECULAR_WEIGHT>
412.42597

> <PUBCHEM_MONOISOTOPIC_WEIGHT>
412.106848

> <PUBCHEM_OPENEYE_CAN_SMILES>
CC1=CC=CC=C1NC(=O)C2CCCN2S(=O)(=O)C3=CC=CC=C3C(F)(F)F

> <PUBCHEM_OPENEYE_ISO_SMILES>
CC1=CC=CC=C1NC(=O)C2CCCN2S(=O)(=O)C3=CC=CC=C3C(F)(F)F

> <PUBCHEM_TOTAL_CHARGE>
0

> <PUBCHEM_XLOGP3_AA>
3.7

$$$$
Written by BCL::WriteToMDL,1454979
MBcorina  10171218483D 1   1.00000     0.00000 
CORINA 3.49 0026  01.06.2011
 61 63  0  0  0  0  0  0  0  0999 V2000
   -0.0161    1.3352    0.0094 O   0  0  0  1  0  2  0  0  0  0  0  0
    1.0110    5.3250   -2.3211 O   0  0  0  1  0  1  0  0  0  0  0  0
    2.8302    3.5089   -0.0053 O   0  0  0  1  0  1  0  0  0  0  0  0
    1.5936    7.3543   -1.6395 N   0  0  0  1  0  3  0  0  0  0  0  0
    0.7111    4.1774    0.0181 N   0  0  0  1  0  3  0  0  0  0  0  0
    1.7140    7.8319   -3.0192 C   0  0  0  1  0  4  0  0  0  0  0  0
    1.5105    9.3563   -3.0690 C   0  0  0  1  0  4  0  0  0  0  0  0
    3.1365    7.5596   -3.5504 C   0  0  0  1  0  4  0  0  0  0  0  0
    3.4574    8.7952   -4.4276 C   0  0  0  1  0  4  0  0  0  0  0  0
    2.8165    9.9572   -3.6288 C   0  0  0  1  0  4  0  0  0  0  0  0
    1.2345    6.0781   -1.3970 C   0  0  0  1  0  3  0  0  0  0  0  0
   -1.2110   -0.8982    0.0080 C   0  0  0  1  0  4  0  0  0  0  0  0
    1.1107    5.5869    0.0223 C   0  0  0  1  0  4  0  0  0  0  0  0
    0.0021   -0.0041    0.0020 C   0  0  0  1  0  3  0  0  0  0  0  0
    1.2503    1.8002   -0.0002 C   0  0  0  1  0  3  0  0  0  0  0  0
   -1.1821   -1.7885    1.2520 C   0  0  0  1  0  4  0  0  0  0  0  0
   -2.4773   -0.0397    0.0246 C   0  0  0  1  0  4  0  0  0  0  0  0
   -1.2051   -1.7742   -1.2463 C   0  0  0  1  0  4  0  0  0  0  0  0
    1.6502    3.2108    0.0040 C   0  0  0  1  0  3  0  0  0  0  0  0
    2.0945    0.7268   -0.0140 C   0  0  0  1  0  3  0  0  0  0  0  0
    1.2873   -0.4214   -0.0125 C   0  0  0  1  0  3  0  0  0  0  0  0
   -0.6446    3.8350    0.0287 C   0  0  0  1  0  3  0  0  0  0  0  0
   -1.3083    3.6578    1.2361 C   0  0  0  1  0  3  0  0  0  0  0  0
    3.6009    0.7673   -0.0286 C   0  0  0  1  0  4  0  0  0  0  0  0
   -1.3318    3.6770   -1.1677 C   0  0  0  1  0  3  0  0  0  0  0  0
   -2.6472    3.3202    1.2431 C   0  0  0  1  0  3  0  0  0  0  0  0
   -0.5679    3.8334    2.5369 C   0  0  0  1  0  4  0  0  0  0  0  0
   -2.6711    3.3392   -1.1536 C   0  0  0  1  0  3  0  0  0  0  0  0
   -3.3273    3.1579    0.0498 C   0  0  0  1  0  3  0  0  0  0  0  0
    0.9774    7.3360   -3.6513 H   0  0  0  1  0  1  0  0  0  0  0  0
    0.6757    9.6003   -3.7260 H   0  0  0  1  0  1  0  0  0  0  0  0
    1.3222    9.7408   -2.0666 H   0  0  0  1  0  1  0  0  0  0  0  0
    3.8441    7.4838   -2.7248 H   0  0  0  1  0  1  0  0  0  0  0  0
    3.1517    6.6506   -4.1518 H   0  0  0  1  0  1  0  0  0  0  0  0
    2.5981   10.7979   -4.2873 H   0  0  0  1  0  1  0  0  0  0  0  0
    3.4723   10.2685   -2.8158 H   0  0  0  1  0  1  0  0  0  0  0  0
    4.5346    8.9361   -4.5172 H   0  0  0  1  0  1  0  0  0  0  0  0
    2.9959    8.7015   -5.4106 H   0  0  0  1  0  1  0  0  0  0  0  0
    1.7724    7.9566   -0.9005 H   0  0  0  1  0  1  0  0  0  0  0  0
    0.3583    6.1763    0.5464 H   0  0  0  1  0  1  0  0  0  0  0  0
    2.0707    5.6909    0.5278 H   0  0  0  1  0  1  0  0  0  0  0  0
   -1.1863   -1.1644    2.1456 H   0  0  0  1  0  1  0  0  0  0  0  0
   -2.0595   -2.4353    1.2563 H   0  0  0  1  0  1  0  0  0  0  0  0
   -0.2800   -2.4002    1.2402 H   0  0  0  1  0  1  0  0  0  0  0  0
   -2.4979    0.5946   -0.8616 H   0  0  0  1  0  1  0  0  0  0  0  0
   -3.3547   -0.6864    0.0289 H   0  0  0  1  0  1  0  0  0  0  0  0
   -2.4815    0.5844    0.9182 H   0  0  0  1  0  1  0  0  0  0  0  0
   -0.3029   -2.3859   -1.2581 H   0  0  0  1  0  1  0  0  0  0  0  0
   -2.0825   -2.4210   -1.2420 H   0  0  0  1  0  1  0  0  0  0  0  0
   -1.2256   -1.1400   -2.1326 H   0  0  0  1  0  1  0  0  0  0  0  0
    1.6290   -1.4459   -0.0216 H   0  0  0  1  0  1  0  0  0  0  0  0
    3.9742    0.7718    0.9954 H   0  0  0  1  0  1  0  0  0  0  0  0
    3.9829   -0.1099   -0.5508 H   0  0  0  1  0  1  0  0  0  0  0  0
    3.9352    1.6693   -0.5412 H   0  0  0  1  0  1  0  0  0  0  0  0
   -0.8198    3.8184   -2.1080 H   0  0  0  1  0  1  0  0  0  0  0  0
   -3.1639    3.1823    2.1815 H   0  0  0  1  0  1  0  0  0  0  0  0
   -0.6403    4.8723    2.8588 H   0  0  0  1  0  1  0  0  0  0  0  0
   -1.0079    3.1864    3.2957 H   0  0  0  1  0  1  0  0  0  0  0  0
    0.4802    3.5686    2.3969 H   0  0  0  1  0  1  0  0  0  0  0  0
   -3.2062    3.2164   -2.0837 H   0  0  0  1  0  1  0  0  0  0  0  0
   -4.3743    2.8931    0.0580 H   0  0  0  1  0  1  0  0  0  0  0  0
  1 14  1  0  0  0  0
  1 15  1  0  0  0  0
  2 11  2  0  0  0  0
  3 19  2  0  0  0  0
  4  6  1  0  0  0  0
  4 11  1  0  0  0  0
  4 39  1  0  0  0  0
  5 13  1  0  0  0  0
  5 19  1  0  0  0  0
  5 22  1  0  0  0  0
  6  7  1  0  0  0  0
  6  8  1  0  0  0  0
  6 30  1  0  0  0  0
  7 10  1  0  0  0  0
  7 31  1  0  0  0  0
  7 32  1  0  0  0  0
  8  9  1  0  0  0  0
  8 33  1  0  0  0  0
  8 34  1  0  0  0  0
  9 10  1  0  0  0  0
  9 37  1  0  0  0  0
  9 38  1  0  0  0  0
 10 35  1  0  0  0  0
 10 36  1  0  0  0  0
 11 13  1  0  0  0  0
 12 14  1  0  0  0  0
 12 16  1  0  0  0  0
 12 17  1  0  0  0  0
 12 18  1  0  0  0  0
 13 40  1  0  0  0  0
 13 41  1  0  0  0  0
 14 21  2  0  0  0  0
 15 19  1  0  0  0  0
 15 20  2  0  0  0  0
 16 42  1  0  0  0  0
 16 43  1  0  0  0  0
 16 44  1  0  0  0  0
 17 45  1  0  0  0  0
 17 46  1  0  0  0  0
 17 47  1  0  0  0  0
 18 48  1  0  0  0  0
 18 49  1  0  0  0  0
 18 50  1  0  0  0  0
 20 21  1  0  0  0  0
 20 24  1  0  0  0  0
 21 51  1  0  0  0  0
 22 23  1  0  0  0  0
 22 25  2  0  0  0  0
 23 26  2  0  0  0  0
 23 27  1  0  0  0  0
 24 52  1  0  0  0  0
 24 53  1  0  0  0  0
 24 54  1  0  0  0  0
 25 28  1  0  0  0  0
 25 55  1  0  0  0  0
 26 29  1  0  0  0  0
 26 56  1  0  0  0  0
 27 57  1  0  0  0  0
 27 58  1  0  0  0  0
 27 59  1  0  0  0  0
 28 29  2  0  0  0  0
 28 60  1  0  0  0  0
 29 61  1  0  0  0  0
M  END
> <Activity>
0.26372

> <Mapped(file=504701.csv.activities,property=Cached(PUBCHEM_COMPOUND_CID))>
0.26372

> <PUBCHEM_ATOM_DEF_STEREO_COUNT>
0

> <PUBCHEM_ATOM_UDEF_STEREO_COUNT>
0

> <PUBCHEM_BONDANNOTATIONS>
1  14  8
1  15  8
14  21  8
15  20  8
20  21  8
22  23  8
22  25  8
23  26  8
25  28  8
26  29  8
28  29  8

> <PUBCHEM_BOND_DEF_STEREO_COUNT>
0

> <PUBCHEM_BOND_UDEF_STEREO_COUNT>
0

> <PUBCHEM_CACTVS_COMPLEXITY>
579

> <PUBCHEM_CACTVS_HBOND_ACCEPTOR>
3

> <PUBCHEM_CACTVS_HBOND_DONOR>
1

> <PUBCHEM_CACTVS_ROTATABLE_BOND>
6

> <PUBCHEM_CACTVS_SUBSKEYS>
AAADcfB7MAAAAAAAAAAAAAAAAAAAAaIAAAAwAAAAAAAAAAABwAAAHgAQAAAADizBmAQyxIPABECIAqVSUAKCCAAlIgAIiIHObMgOZjLEtb+XOSjk1hHY6YeY31LvAAAAAAACAAAAAAAAAAQAAAAAAAAAAA==

> <PUBCHEM_CACTVS_TAUTO_COUNT>
2

> <PUBCHEM_CACTVS_TPSA>
62.6

> <PUBCHEM_COMPONENT_COUNT>
1

> <PUBCHEM_COMPOUND_CANONICALIZED>
1

> <PUBCHEM_COMPOUND_CID>
1454979

> <PUBCHEM_COORDINATE_TYPE>
1
5
255

> <PUBCHEM_EXACT_MASS>
396.241293

> <PUBCHEM_HEAVY_ATOM_COUNT>
29

> <PUBCHEM_ISOTOPIC_ATOM_COUNT>
0

> <PUBCHEM_IUPAC_CAS_NAME>
5-tert-butyl-N-[2-(cyclopentylamino)-2-oxoethyl]-3-methyl-N-(2-methylphenyl)-2-furancarboxamide

> <PUBCHEM_IUPAC_INCHI>
InChI=1S/C24H32N2O3/c1-16-10-6-9-13-19(16)26(15-21(27)25-18-11-7-8-12-18)23(28)22-17(2)14-20(29-22)24(3,4)5/h6,9-10,13-14,18H,7-8,11-12,15H2,1-5H3,(H,25,27)

> <PUBCHEM_IUPAC_INCHIKEY>
BNBJBKJMJONHSB-UHFFFAOYSA-N

> <PUBCHEM_IUPAC_NAME>
5-tert-butyl-N-[2-(cyclopentylamino)-2-oxoethyl]-3-methyl-N-(2-methylphenyl)furan-2-carboxamide

> <PUBCHEM_IUPAC_OPENEYE_NAME>
5-tert-butyl-N-[2-(cyclopentylamino)-2-oxo-ethyl]-3-methyl-N-(o-tolyl)furan-2-carboxamide

> <PUBCHEM_IUPAC_SYSTEMATIC_NAME>
5-tert-butyl-N-[2-(cyclopentylamino)-2-oxidanylidene-ethyl]-3-methyl-N-(2-methylphenyl)furan-2-carboxamide

> <PUBCHEM_IUPAC_TRADITIONAL_NAME>
5-tert-butyl-N-[2-(cyclopentylamino)-2-keto-ethyl]-3-methyl-N-(o-tolyl)-2-furamide

> <PUBCHEM_MOLECULAR_FORMULA>
C24H32N2O3

> <PUBCHEM_MOLECULAR_WEIGHT>
396.52248

> <PUBCHEM_MONOISOTOPIC_WEIGHT>
396.241293

> <PUBCHEM_OPENEYE_CAN_SMILES>
CC1=CC=CC=C1N(CC(=O)NC2CCCC2)C(=O)C3=C(C=C(O3)C(C)(C)C)C

> <PUBCHEM_OPENEYE_ISO_SMILES>
CC1=CC=CC=C1N(CC(=O)NC2CCCC2)C(=O)C3=C(C=C(O3)C(C)(C)C)C

> <PUBCHEM_TOTAL_CHARGE>
0

> <PUBCHEM_XLOGP3_AA>
5.4

$$$$
Written by BCL::WriteToMDL,16738609
MBcorina  10171218483D 1   1.00000     0.00000 
CORINA 3.49 0026  01.06.2011
 42 44  0  0  0  0  0  0  0  0999 V2000
   -0.1393    1.5433    0.3206 S   0  0  0  1  0  4  0  0  0  0  0  0
   -0.0362    0.1269    0.3715 O   0  0  0  1  0  1  0  0  0  0  0  0
    0.9843    2.4082    0.4135 O   0  0  0  1  0  1  0  0  0  0  0  0
    1.0860    3.8154   -1.3671 O   0  0  0  1  0  2  0  0  0  0  0  0
   -3.7827    0.5141    3.7449 O   0  0  0  1  0  2  0  0  0  0  0  0
   -3.7981    3.1106    4.6641 O   0  0  0  1  0  2  0  0  0  0  0  0
   -0.8918    1.9063   -1.1092 N   0  0  0  1  0  3  0  0  0  0  0  0
   -1.2121    3.2321   -1.4133 C   0  0  0  1  0  3  0  0  0  0  0  0
   -2.5570    3.6170   -1.5880 C   0  0  0  1  0  3  0  0  0  0  0  0
   -2.8592    4.9673   -1.8961 C   0  0  0  1  0  3  0  0  0  0  0  0
   -1.2348    2.0094    1.6196 C   0  0  0  1  0  3  0  0  0  0  0  0
   -0.2135    4.1794   -1.5401 C   0  0  0  1  0  3  0  0  0  0  0  0
   -1.8155    5.8996   -2.0229 C   0  0  0  1  0  3  0  0  0  0  0  0
   -3.6023    2.6880   -1.4630 C   0  0  0  1  0  3  0  0  0  0  0  0
   -2.0843    1.0711    2.1754 C   0  0  0  1  0  3  0  0  0  0  0  0
   -0.5248    5.5053   -1.8431 C   0  0  0  1  0  3  0  0  0  0  0  0
   -1.2388    3.3114    2.0846 C   0  0  0  1  0  3  0  0  0  0  0  0
   -4.2005    5.3496   -2.0700 C   0  0  0  1  0  3  0  0  0  0  0  0
   -2.9460    1.4359    3.1973 C   0  0  0  1  0  3  0  0  0  0  0  0
   -2.9538    2.7476    3.6617 C   0  0  0  1  0  3  0  0  0  0  0  0
   -4.8899    3.0943   -1.6387 C   0  0  0  1  0  3  0  0  0  0  0  0
   -2.0957    3.6818    3.1041 C   0  0  0  1  0  3  0  0  0  0  0  0
   -5.1879    4.4215   -1.9407 C   0  0  0  1  0  3  0  0  0  0  0  0
   -3.7203   -0.8127    3.2179 C   0  0  0  1  0  4  0  0  0  0  0  0
   -3.7514    4.4739    5.0899 C   0  0  0  1  0  4  0  0  0  0  0  0
   -1.1103    1.1986   -1.7356 H   0  0  0  1  0  1  0  0  0  0  0  0
   -2.0375    6.9302   -2.2575 H   0  0  0  1  0  1  0  0  0  0  0  0
   -3.3860    1.6560   -1.2290 H   0  0  0  1  0  1  0  0  0  0  0  0
   -2.0765    0.0537    1.8129 H   0  0  0  1  0  1  0  0  0  0  0  0
    0.2705    6.2299   -1.9373 H   0  0  0  1  0  1  0  0  0  0  0  0
   -0.5707    4.0406    1.6505 H   0  0  0  1  0  1  0  0  0  0  0  0
   -4.4466    6.3747   -2.3046 H   0  0  0  1  0  1  0  0  0  0  0  0
   -2.0966    4.6995    3.4658 H   0  0  0  1  0  1  0  0  0  0  0  0
   -5.6920    2.3776   -1.5420 H   0  0  0  1  0  1  0  0  0  0  0  0
   -6.2177    4.7183   -2.0745 H   0  0  0  1  0  1  0  0  0  0  0  0
    1.5473    3.6013   -2.1896 H   0  0  0  1  0  1  0  0  0  0  0  0
   -3.9614   -0.7932    2.1550 H   0  0  0  1  0  1  0  0  0  0  0  0
   -2.7152   -1.2113    3.3552 H   0  0  0  1  0  1  0  0  0  0  0  0
   -4.4369   -1.4456    3.7414 H   0  0  0  1  0  1  0  0  0  0  0  0
   -2.7500    4.7075    5.4514 H   0  0  0  1  0  1  0  0  0  0  0  0
   -3.9959    5.1252    4.2508 H   0  0  0  1  0  1  0  0  0  0  0  0
   -4.4727    4.6289    5.8923 H   0  0  0  1  0  1  0  0  0  0  0  0
  1  2  2  0  0  0  0
  1  3  2  0  0  0  0
  1  7  1  0  0  0  0
  1 11  1  0  0  0  0
  4 12  1  0  0  0  0
  4 36  1  0  0  0  0
  5 19  1  0  0  0  0
  5 24  1  0  0  0  0
  6 20  1  0  0  0  0
  6 25  1  0  0  0  0
  7  8  1  0  0  0  0
  7 26  1  0  0  0  0
  8  9  1  0  0  0  0
  8 12  2  0  0  0  0
  9 10  1  0  0  0  0
  9 14  2  0  0  0  0
 10 13  1  0  0  0  0
 10 18  2  0  0  0  0
 11 15  2  0  0  0  0
 11 17  1  0  0  0  0
 12 16  1  0  0  0  0
 13 16  2  0  0  0  0
 13 27  1  0  0  0  0
 14 21  1  0  0  0  0
 14 28  1  0  0  0  0
 15 19  1  0  0  0  0
 15 29  1  0  0  0  0
 16 30  1  0  0  0  0
 17 22  2  0  0  0  0
 17 31  1  0  0  0  0
 18 23  1  0  0  0  0
 18 32  1  0  0  0  0
 19 20  2  0  0  0  0
 20 22  1  0  0  0  0
 21 23  2  0  0  0  0
 21 34  1  0  0  0  0
 22 33  1  0  0  0  0
 23 35  1  0  0  0  0
 24 37  1  0  0  0  0
 24 38  1  0  0  0  0
 24 39  1  0  0  0  0
 25 40  1  0  0  0  0
 25 41  1  0  0  0  0
 25 42  1  0  0  0  0
M  END
> <Activity>
3.147

> <Mapped(file=504701.csv.activities,property=Cached(PUBCHEM_COMPOUND_CID))>
3.147

> <PUBCHEM_ATOM_DEF_STEREO_COUNT>
0

> <PUBCHEM_ATOM_UDEF_STEREO_COUNT>
0

> <PUBCHEM_BONDANNOTATIONS>
10  13  8
10  18  8
11  15  8
11  17  8
12  16  8
13  16  8
14  21  8
15  19  8
17  22  8
18  23  8
19  20  8
20  22  8
21  23  8
8  12  8
8  9  8
9  10  8
9  14  8

> <PUBCHEM_BOND_DEF_STEREO_COUNT>
0

> <PUBCHEM_BOND_UDEF_STEREO_COUNT>
0

> <PUBCHEM_CACTVS_COMPLEXITY>
534

> <PUBCHEM_CACTVS_HBOND_ACCEPTOR>
6

> <PUBCHEM_CACTVS_HBOND_DONOR>
2

> <PUBCHEM_CACTVS_ROTATABLE_BOND>
5

> <PUBCHEM_CACTVS_SUBSKEYS>
AAADceB6OABAAAAAAAAAAAAAAAAAAAAAAAAwYMAAAAAAAADBVAAAHgQQSAAADAyB2AIyx8BABgKAAiRCQHDCCBAgIAAIiBgHzIgPJiKWsZuAcCJkwBEK+AeQwLAOoIABRAASUABBAAKIACSgAAAAAAAAAA==

> <PUBCHEM_CACTVS_TAUTO_COUNT>
8

> <PUBCHEM_CACTVS_TPSA>
93.2

> <PUBCHEM_COMPONENT_COUNT>
1

> <PUBCHEM_COMPOUND_CANONICALIZED>
1

> <PUBCHEM_COMPOUND_CID>
16738609

> <PUBCHEM_COORDINATE_TYPE>
1
5
255

> <PUBCHEM_EXACT_MASS>
359.082744

> <PUBCHEM_HEAVY_ATOM_COUNT>
25

> <PUBCHEM_ISOTOPIC_ATOM_COUNT>
0

> <PUBCHEM_IUPAC_CAS_NAME>
N-(2-hydroxy-1-naphthalenyl)-3,4-dimethoxybenzenesulfonamide

> <PUBCHEM_IUPAC_INCHI>
InChI=1S/C18H17NO5S/c1-23-16-10-8-13(11-17(16)24-2)25(21,22)19-18-14-6-4-3-5-12(14)7-9-15(18)20/h3-11,19-20H,1-2H3

> <PUBCHEM_IUPAC_INCHIKEY>
URVWFIZXKWZNQS-UHFFFAOYSA-N

> <PUBCHEM_IUPAC_NAME>
N-(2-hydroxynaphthalen-1-yl)-3,4-dimethoxybenzenesulfonamide

> <PUBCHEM_IUPAC_OPENEYE_NAME>
N-(2-hydroxy-1-naphthyl)-3,4-dimethoxy-benzenesulfonamide

> <PUBCHEM_IUPAC_SYSTEMATIC_NAME>
3,4-dimethoxy-N-(2-oxidanylnaphthalen-1-yl)benzenesulfonamide

> <PUBCHEM_IUPAC_TRADITIONAL_NAME>
N-(2-hydroxy-1-naphthyl)-3,4-dimethoxy-benzenesulfonamide

> <PUBCHEM_MOLECULAR_FORMULA>
C18H17NO5S

> <PUBCHEM_MOLECULAR_WEIGHT>
359.39628

> <PUBCHEM_MONOISOTOPIC_WEIGHT>
359.082744

> <PUBCHEM_OPENEYE_CAN_SMILES>
COC1=C(C=C(C=C1)S(=O)(=O)NC2=C(C=CC3=CC=CC=C32)O)OC

> <PUBCHEM_OPENEYE_ISO_SMILES>
COC1=C(C=C(C=C1)S(=O)(=O)NC2=C(C=CC3=CC=CC=C32)O)OC

> <PUBCHEM_TOTAL_CHARGE>
0

> <PUBCHEM_XLOGP3_AA>
3.3

$$$$
Written by BCL::WriteToMDL,44144121
MBcorina  10171218483D 1   1.00000     0.00000 
CORINA 3.49 0026  01.06.2011
 70 74  0  0  0  0  0  0  0  0999 V2000
   -5.3264    5.2739    1.7807 Cl  0  0  0  1  0  1  0  0  0  0  0  0
   -4.8194   -1.3824    2.4872 O   0  0  0  1  0  1  0  0  0  0  0  0
   -0.0162    1.3451    0.0094 O   0  0  0  1  0  2  0  0  0  0  0  0
    1.0637   -0.5979   -0.0113 O   0  0  0  1  0  1  0  0  0  0  0  0
    0.3441   -2.2230   -2.3622 O   0  0  0  1  0  2  0  0  0  0  0  0
   -4.2984    3.2176    3.6396 O   0  0  0  1  0  2  0  0  0  0  0  0
   -3.4919   -0.8309    0.7940 N   0  0  0  1  0  3  0  0  0  0  0  0
   -3.7431    0.5531    2.6570 N   0  0  0  1  0  3  0  0  0  0  0  0
   -3.6909   -2.0076   -0.0860 C   0  0  0  1  0  4  0  0  0  0  0  0
   -2.5397    0.0100    0.0264 C   0  0  0  1  0  4  0  0  0  0  0  0
   -3.7808   -1.4266   -1.5096 C   0  0  0  1  0  4  0  0  0  0  0  0
   -3.0804   -0.0535   -1.4264 C   0  0  0  1  0  4  0  0  0  0  0  0
   -2.4543   -2.8993    0.0399 C   0  0  0  1  0  4  0  0  0  0  0  0
   -1.2159   -0.7295    0.0098 C   0  0  0  1  0  3  0  0  0  0  0  0
   -1.1984   -2.0745    0.0024 C   0  0  0  1  0  3  0  0  0  0  0  0
   -4.0461   -0.5823    1.9971 C   0  0  0  1  0  3  0  0  0  0  0  0
    0.0981   -2.7637   -0.0437 C   0  0  0  1  0  3  0  0  0  0  0  0
    0.0021   -0.0041    0.0020 C   0  0  0  1  0  3  0  0  0  0  0  0
    0.8306   -2.8123   -1.2410 C   0  0  0  1  0  3  0  0  0  0  0  0
    0.6139   -3.3709    1.1064 C   0  0  0  1  0  3  0  0  0  0  0  0
   -4.3455    0.8233    3.9648 C   0  0  0  1  0  4  0  0  0  0  0  0
    2.0523   -3.4655   -1.2718 C   0  0  0  1  0  3  0  0  0  0  0  0
    1.8306   -4.0155    1.0554 C   0  0  0  1  0  3  0  0  0  0  0  0
    2.5465   -4.0656   -0.1296 C   0  0  0  1  0  3  0  0  0  0  0  0
   -3.8383    2.1670    4.4921 C   0  0  0  1  0  4  0  0  0  0  0  0
    1.2481    2.0111    0.0009 C   0  0  0  1  0  4  0  0  0  0  0  0
    1.1448   -2.3136   -3.5423 C   0  0  0  1  0  4  0  0  0  0  0  0
    0.4489   -1.6070   -4.6770 C   0  0  0  1  0  3  0  0  0  0  0  0
   -3.9334    4.4846    3.9696 C   0  0  0  1  0  3  0  0  0  0  0  0
    0.6821   -0.2630   -4.9010 C   0  0  0  1  0  3  0  0  0  0  0  0
   -0.4182   -2.3042   -5.4973 C   0  0  0  1  0  3  0  0  0  0  0  0
   -4.3453    5.5538    3.1852 C   0  0  0  1  0  3  0  0  0  0  0  0
   -3.1538    4.7124    5.0935 C   0  0  0  1  0  3  0  0  0  0  0  0
    0.0437    0.3852   -5.9418 C   0  0  0  1  0  3  0  0  0  0  0  0
   -1.0565   -1.6560   -6.5381 C   0  0  0  1  0  3  0  0  0  0  0  0
   -0.8274   -0.3108   -6.7589 C   0  0  0  1  0  3  0  0  0  0  0  0
   -3.9729    6.8411    3.5237 C   0  0  0  1  0  3  0  0  0  0  0  0
   -2.7843    6.0015    5.4274 C   0  0  0  1  0  3  0  0  0  0  0  0
   -3.1910    7.0641    4.6423 C   0  0  0  1  0  3  0  0  0  0  0  0
   -4.6020   -2.5452    0.1766 H   0  0  0  1  0  1  0  0  0  0  0  0
   -2.4656    1.0277    0.4097 H   0  0  0  1  0  1  0  0  0  0  0  0
   -3.2619   -2.0742   -2.2164 H   0  0  0  1  0  1  0  0  0  0  0  0
   -4.8232   -1.3029   -1.8030 H   0  0  0  1  0  1  0  0  0  0  0  0
   -3.7949    0.7505   -1.6031 H   0  0  0  1  0  1  0  0  0  0  0  0
   -2.2597    0.0001   -2.1417 H   0  0  0  1  0  1  0  0  0  0  0  0
   -2.4985   -3.4433    0.9834 H   0  0  0  1  0  1  0  0  0  0  0  0
   -2.4404   -3.6123   -0.7845 H   0  0  0  1  0  1  0  0  0  0  0  0
   -3.1262    1.1914    2.2660 H   0  0  0  1  0  1  0  0  0  0  0  0
    0.0596   -3.3342    2.0326 H   0  0  0  1  0  1  0  0  0  0  0  0
   -5.4304    0.8583    3.8648 H   0  0  0  1  0  1  0  0  0  0  0  0
   -4.0702    0.0321    4.6621 H   0  0  0  1  0  1  0  0  0  0  0  0
    2.6190   -3.5058   -2.1903 H   0  0  0  1  0  1  0  0  0  0  0  0
    2.2281   -4.4841    1.9436 H   0  0  0  1  0  1  0  0  0  0  0  0
    3.4993   -4.5732   -0.1597 H   0  0  0  1  0  1  0  0  0  0  0  0
   -2.7484    2.1631    4.5081 H   0  0  0  1  0  1  0  0  0  0  0  0
   -4.2159    2.3269    5.5020 H   0  0  0  1  0  1  0  0  0  0  0  0
    1.8175    1.7211    0.8840 H   0  0  0  1  0  1  0  0  0  0  0  0
    1.8005    1.7306   -0.8959 H   0  0  0  1  0  1  0  0  0  0  0  0
    1.0906    3.0897    0.0082 H   0  0  0  1  0  1  0  0  0  0  0  0
    2.1125   -1.8455   -3.3617 H   0  0  0  1  0  1  0  0  0  0  0  0
    1.2913   -3.3620   -3.8024 H   0  0  0  1  0  1  0  0  0  0  0  0
    1.3627    0.2807   -4.2626 H   0  0  0  1  0  1  0  0  0  0  0  0
   -0.5967   -3.3553   -5.3253 H   0  0  0  1  0  1  0  0  0  0  0  0
   -2.8358    3.8829    5.7078 H   0  0  0  1  0  1  0  0  0  0  0  0
    0.2253    1.4354   -6.1163 H   0  0  0  1  0  1  0  0  0  0  0  0
   -1.7337   -2.2008   -7.1793 H   0  0  0  1  0  1  0  0  0  0  0  0
   -1.3264    0.1957   -7.5718 H   0  0  0  1  0  1  0  0  0  0  0  0
   -4.2925    7.6732    2.9140 H   0  0  0  1  0  1  0  0  0  0  0  0
   -2.1771    6.1790    6.3027 H   0  0  0  1  0  1  0  0  0  0  0  0
   -2.9009    8.0706    4.9052 H   0  0  0  1  0  1  0  0  0  0  0  0
  1 32  1  0  0  0  0
  2 16  2  0  0  0  0
  3 18  1  0  0  0  0
  3 26  1  0  0  0  0
  4 18  2  0  0  0  0
  5 19  1  0  0  0  0
  5 27  1  0  0  0  0
  6 25  1  0  0  0  0
  6 29  1  0  0  0  0
  7  9  1  0  0  0  0
  7 10  1  0  0  0  0
  7 16  1  0  0  0  0
  8 16  1  0  0  0  0
  8 21  1  0  0  0  0
  8 48  1  0  0  0  0
  9 11  1  0  0  0  0
  9 13  1  0  0  0  0
  9 40  1  0  0  0  0
 10 12  1  0  0  0  0
 10 14  1  0  0  0  0
 10 41  1  0  0  0  0
 11 12  1  0  0  0  0
 11 42  1  0  0  0  0
 11 43  1  0  0  0  0
 12 44  1  0  0  0  0
 12 45  1  0  0  0  0
 13 15  1  0  0  0  0
 13 46  1  0  0  0  0
 13 47  1  0  0  0  0
 14 15  2  0  0  0  0
 14 18  1  0  0  0  0
 15 17  1  0  0  0  0
 17 19  1  0  0  0  0
 17 20  2  0  0  0  0
 19 22  2  0  0  0  0
 20 23  1  0  0  0  0
 20 49  1  0  0  0  0
 21 25  1  0  0  0  0
 21 50  1  0  0  0  0
 21 51  1  0  0  0  0
 22 24  1  0  0  0  0
 22 52  1  0  0  0  0
 23 24  2  0  0  0  0
 23 53  1  0  0  0  0
 24 54  1  0  0  0  0
 25 55  1  0  0  0  0
 25 56  1  0  0  0  0
 26 57  1  0  0  0  0
 26 58  1  0  0  0  0
 26 59  1  0  0  0  0
 27 28  1  0  0  0  0
 27 60  1  0  0  0  0
 27 61  1  0  0  0  0
 28 30  2  0  0  0  0
 28 31  1  0  0  0  0
 29 32  1  0  0  0  0
 29 33  2  0  0  0  0
 30 34  1  0  0  0  0
 30 62  1  0  0  0  0
 31 35  2  0  0  0  0
 31 63  1  0  0  0  0
 32 37  2  0  0  0  0
 33 38  1  0  0  0  0
 33 64  1  0  0  0  0
 34 36  2  0  0  0  0
 34 65  1  0  0  0  0
 35 36  1  0  0  0  0
 35 66  1  0  0  0  0
 36 67  1  0  0  0  0
 37 39  1  0  0  0  0
 37 68  1  0  0  0  0
 38 39  2  0  0  0  0
 38 69  1  0  0  0  0
 39 70  1  0  0  0  0
M  END
> <Activity>
3.709

> <Mapped(file=504701.csv.activities,property=Cached(PUBCHEM_COMPOUND_CID))>
3.709

> <PUBCHEM_ATOM_DEF_STEREO_COUNT>
2

> <PUBCHEM_ATOM_UDEF_STEREO_COUNT>
0

> <PUBCHEM_BONDANNOTATIONS>
10  41  5
17  19  8
17  20  8
19  22  8
20  23  8
22  24  8
23  24  8
28  30  8
28  31  8
29  32  8
29  33  8
30  34  8
31  35  8
32  37  8
33  38  8
34  36  8
35  36  8
37  39  8
38  39  8
9  40  6

> <PUBCHEM_BOND_DEF_STEREO_COUNT>
0

> <PUBCHEM_BOND_UDEF_STEREO_COUNT>
0

> <PUBCHEM_CACTVS_COMPLEXITY>
875

> <PUBCHEM_CACTVS_HBOND_ACCEPTOR>
5

> <PUBCHEM_CACTVS_HBOND_DONOR>
1

> <PUBCHEM_CACTVS_ROTATABLE_BOND>
10

> <PUBCHEM_CACTVS_SUBSKEYS>
AAADceB7OAAEAAAAAAAAAAAAAAAAAWAAAAAwYMEABAAAAAABUAAAHgIQAAAADC7hmCYzDoPABACIAiDSGACCCAAgJUAIiIEOC8iOJjuFsxqHOCCu1hOYqQeY2OOOAAAAAAAICAAAAAAAABAQAAAAAAAAAA==

> <PUBCHEM_CACTVS_TAUTO_COUNT>
2

> <PUBCHEM_CACTVS_TPSA>
77.1

> <PUBCHEM_COMPONENT_COUNT>
1

> <PUBCHEM_COMPOUND_CANONICALIZED>
1

> <PUBCHEM_COMPOUND_CID>
44144121

> <PUBCHEM_COORDINATE_TYPE>
1
5
255

> <PUBCHEM_EXACT_MASS>
546.19215

> <PUBCHEM_HEAVY_ATOM_COUNT>
39

> <PUBCHEM_ISOTOPIC_ATOM_COUNT>
0

> <PUBCHEM_IUPAC_CAS_NAME>
(1S,5R)-8-[[2-(2-chlorophenoxy)ethylamino]-oxomethyl]-3-(2-phenylmethoxyphenyl)-8-azabicyclo[3.2.1]oct-3-ene-4-carboxylic acid methyl ester

> <PUBCHEM_IUPAC_INCHI>
InChI=1S/C31H31ClN2O5/c1-37-30(35)29-24(23-11-5-7-13-27(23)39-20-21-9-3-2-4-10-21)19-22-15-16-26(29)34(22)31(36)33-17-18-38-28-14-8-6-12-25(28)32/h2-14,22,26H,15-20H2,1H3,(H,33,36)/t22-,26+/m0/s1

> <PUBCHEM_IUPAC_INCHIKEY>
DNZABSXHTDRSQA-BKMJKUGQSA-N

> <PUBCHEM_IUPAC_NAME>
methyl (1S,5R)-8-[2-(2-chlorophenoxy)ethylcarbamoyl]-3-(2-phenylmethoxyphenyl)-8-azabicyclo[3.2.1]oct-3-ene-4-carboxylate

> <PUBCHEM_IUPAC_OPENEYE_NAME>
methyl (1S,5R)-3-(2-benzyloxyphenyl)-8-[2-(2-chlorophenoxy)ethylcarbamoyl]-8-azabicyclo[3.2.1]oct-3-ene-4-carboxylate

> <PUBCHEM_IUPAC_SYSTEMATIC_NAME>
methyl (1S,5R)-8-[2-(2-chloranylphenoxy)ethylcarbamoyl]-3-(2-phenylmethoxyphenyl)-8-azabicyclo[3.2.1]oct-3-ene-4-carboxylate

> <PUBCHEM_IUPAC_TRADITIONAL_NAME>
(1S,5R)-3-(2-benzoxyphenyl)-8-[2-(2-chlorophenoxy)ethylcarbamoyl]-8-azabicyclo[3.2.1]oct-3-ene-4-carboxylic acid methyl ester

> <PUBCHEM_MOLECULAR_FORMULA>
C31H31ClN2O5

> <PUBCHEM_MOLECULAR_WEIGHT>
547.04124

> <PUBCHEM_MONOISOTOPIC_WEIGHT>
546.19215

> <PUBCHEM_OPENEYE_CAN_SMILES>
COC(=O)C1=C(CC2CCC1N2C(=O)NCCOC3=CC=CC=C3Cl)C4=CC=CC=C4OCC5=CC=CC=C5

> <PUBCHEM_OPENEYE_ISO_SMILES>
COC(=O)C1=C(C[C@@H]2CC[C@H]1N2C(=O)NCCOC3=CC=CC=C3Cl)C4=CC=CC=C4OCC5=CC=CC=C5

> <PUBCHEM_TOTAL_CHARGE>
0

> <PUBCHEM_XLOGP3_AA>
5.3

$$$$
Written by BCL::WriteToMDL,936790
MBcorina  10171218483D 1   1.00000     0.00000 
CORINA 3.49 0026  01.06.2011
 29 32  0  0  0  0  0  0  0  0999 V2000
    0.8949   -4.0398   -0.0287 F   0  0  0  1  0  1  0  0  0  0  0  0
   -0.0167    1.3827    0.0096 N   0  0  0  1  0  3  0  0  0  0  0  0
    3.4733    0.9844   -0.0255 N   0  0  0  1  0  2  0  0  0  0  0  0
    1.7357    3.1170    0.0026 N   0  0  0  1  0  2  0  0  0  0  0  0
    0.0021   -0.0041    0.0020 C   0  0  0  1  0  3  0  0  0  0  0  0
    1.3370   -0.4329   -0.0131 C   0  0  0  1  0  3  0  0  0  0  0  0
    2.1694    0.7853   -0.0145 C   0  0  0  1  0  3  0  0  0  0  0  0
    1.2691    1.8817    0.0000 C   0  0  0  1  0  3  0  0  0  0  0  0
   -1.0167   -0.9511    0.0071 C   0  0  0  1  0  3  0  0  0  0  0  0
    1.6349   -1.7938   -0.0232 C   0  0  0  1  0  3  0  0  0  0  0  0
   -1.2312    2.2020    0.0200 C   0  0  0  1  0  4  0  0  0  0  0  0
    3.9523    2.2318   -0.0230 C   0  0  0  1  0  3  0  0  0  0  0  0
    3.0557    3.3313   -0.0084 C   0  0  0  1  0  3  0  0  0  0  0  0
   -0.7112   -2.2956   -0.0022 C   0  0  0  1  0  3  0  0  0  0  0  0
    0.6104   -2.7191   -0.0184 C   0  0  0  1  0  3  0  0  0  0  0  0
    5.3381    2.4726   -0.0340 C   0  0  0  1  0  3  0  0  0  0  0  0
    3.5731    4.6388   -0.0058 C   0  0  0  1  0  3  0  0  0  0  0  0
    5.8007    3.7522   -0.0307 C   0  0  0  1  0  3  0  0  0  0  0  0
    4.9200    4.8326   -0.0172 C   0  0  0  1  0  3  0  0  0  0  0  0
   -2.0487   -0.6327    0.0187 H   0  0  0  1  0  1  0  0  0  0  0  0
    2.6632   -2.1235   -0.0352 H   0  0  0  1  0  1  0  0  0  0  0  0
   -1.5273    2.3996    1.0502 H   0  0  0  1  0  1  0  0  0  0  0  0
   -1.0371    3.1458   -0.4896 H   0  0  0  1  0  1  0  0  0  0  0  0
   -2.0326    1.6702   -0.4928 H   0  0  0  1  0  1  0  0  0  0  0  0
   -1.5072   -3.0255    0.0022 H   0  0  0  1  0  1  0  0  0  0  0  0
    6.0321    1.6452   -0.0448 H   0  0  0  1  0  1  0  0  0  0  0  0
    2.9038    5.4863    0.0048 H   0  0  0  1  0  1  0  0  0  0  0  0
    6.8653    3.9334   -0.0392 H   0  0  0  1  0  1  0  0  0  0  0  0
    5.3126    5.8387   -0.0152 H   0  0  0  1  0  1  0  0  0  0  0  0
  1 15  1  0  0  0  0
  2  5  1  0  0  0  0
  2  8  1  0  0  0  0
  2 11  1  0  0  0  0
  3  7  2  0  0  0  0
  3 12  1  0  0  0  0
  4  8  2  0  0  0  0
  4 13  1  0  0  0  0
  5  6  2  0  0  0  0
  5  9  1  0  0  0  0
  6  7  1  0  0  0  0
  6 10  1  0  0  0  0
  7  8  1  0  0  0  0
  9 14  2  0  0  0  0
  9 20  1  0  0  0  0
 10 15  2  0  0  0  0
 10 21  1  0  0  0  0
 11 22  1  0  0  0  0
 11 23  1  0  0  0  0
 11 24  1  0  0  0  0
 12 13  1  0  0  0  0
 12 16  2  0  0  0  0
 13 17  2  0  0  0  0
 14 15  1  0  0  0  0
 14 25  1  0  0  0  0
 16 18  1  0  0  0  0
 16 26  1  0  0  0  0
 17 19  1  0  0  0  0
 17 27  1  0  0  0  0
 18 19  2  0  0  0  0
 18 28  1  0  0  0  0
 19 29  1  0  0  0  0
M  END
> <Activity>
1.169

> <Mapped(file=504701.csv.activities,property=Cached(PUBCHEM_COMPOUND_CID))>
1.169

> <PUBCHEM_ATOM_DEF_STEREO_COUNT>
0

> <PUBCHEM_ATOM_UDEF_STEREO_COUNT>
0

> <PUBCHEM_BONDANNOTATIONS>
10  15  8
12  13  8
12  16  8
13  17  8
14  15  8
16  18  8
17  19  8
18  19  8
2  5  8
2  8  8
3  12  8
3  7  8
4  13  8
4  8  8
5  6  8
5  9  8
6  10  8
6  7  8
7  8  8
9  14  8

> <PUBCHEM_BOND_DEF_STEREO_COUNT>
0

> <PUBCHEM_BOND_UDEF_STEREO_COUNT>
0

> <PUBCHEM_CACTVS_COMPLEXITY>
350

> <PUBCHEM_CACTVS_HBOND_ACCEPTOR>
2

> <PUBCHEM_CACTVS_HBOND_DONOR>
0

> <PUBCHEM_CACTVS_ROTATABLE_BOND>
0

> <PUBCHEM_CACTVS_SUBSKEYS>
AAADccBzAQAAAAAAAAAAAAAAAAAAAWAAAAA8YIAAAAAAAFix/gAAHQAAAAAADAiBHwwz8P8MEACgAyZiZACCgC0hEqAJ2CA4dJiIaOLA2dGUJAhogALIyCcQgIAOAAAAAAACACAAAAAAAAQAQAAAAAAAAA==

> <PUBCHEM_CACTVS_TAUTO_COUNT>
1

> <PUBCHEM_CACTVS_TPSA>
30.7

> <PUBCHEM_COMPONENT_COUNT>
1

> <PUBCHEM_COMPOUND_CANONICALIZED>
1

> <PUBCHEM_COMPOUND_CID>
936790

> <PUBCHEM_COORDINATE_TYPE>
1
5
255

> <PUBCHEM_EXACT_MASS>
251.085876

> <PUBCHEM_HEAVY_ATOM_COUNT>
19

> <PUBCHEM_ISOTOPIC_ATOM_COUNT>
0

> <PUBCHEM_IUPAC_CAS_NAME>
9-fluoro-6-methylindolo[3,2-b]quinoxaline

> <PUBCHEM_IUPAC_INCHI>
InChI=1S/C15H10FN3/c1-19-13-7-6-9(16)8-10(13)14-15(19)18-12-5-3-2-4-11(12)17-14/h2-8H,1H3

> <PUBCHEM_IUPAC_INCHIKEY>
LGWYSDDBRZPJIX-UHFFFAOYSA-N

> <PUBCHEM_IUPAC_NAME>
9-fluoro-6-methylindolo[3,2-b]quinoxaline

> <PUBCHEM_IUPAC_OPENEYE_NAME>
9-fluoro-6-methyl-indolo[3,2-b]quinoxaline

> <PUBCHEM_IUPAC_SYSTEMATIC_NAME>
9-fluoranyl-6-methyl-indolo[3,2-b]quinoxaline

> <PUBCHEM_IUPAC_TRADITIONAL_NAME>
9-fluoro-6-methyl-indolo[3,2-b]quinoxaline

> <PUBCHEM_MOLECULAR_FORMULA>
C15H10FN3

> <PUBCHEM_MOLECULAR_WEIGHT>
251.258403

> <PUBCHEM_MONOISOTOPIC_WEIGHT>
251.085876

> <PUBCHEM_OPENEYE_CAN_SMILES>
CN1C2=C(C=C(C=C2)F)C3=NC4=CC=CC=C4N=C31

> <PUBCHEM_OPENEYE_ISO_SMILES>
CN1C2=C(C=C(C=C2)F)C3=NC4=CC=CC=C4N=C31

> <PUBCHEM_TOTAL_CHARGE>
0

> <PUBCHEM_XLOGP3_AA>
2.9

$$$$
Written by BCL::WriteToMDL,6291421
MBcorina  10171218483D 1   1.00000     0.00000 
CORINA 3.49 0026  01.06.2011
 43 46  0  0  0  0  0  0  0  0999 V2000
    3.9703    0.3229   -0.0336 Cl  0  0  0  1  0  1  0  0  0  0  0  0
   -0.0218    1.7558    0.0117 S   0  0  0  1  0  2  0  0  0  0  0  0
   -1.8056   -3.1728    0.0036 O   0  0  0  1  0  2  0  0  0  0  0  0
    3.7297    3.0232   -0.0182 O   0  0  0  1  0  1  0  0  0  0  0  0
    4.4729    9.2096    0.0076 N   0  0  0  1  0  2  0  0  0  0  0  0
    2.6335    5.4484    0.0054 N   0  0  0  1  0  3  0  0  0  0  0  0
    1.8861    4.2634    0.0066 N   0  0  0  1  0  3  0  0  0  0  0  0
    2.2330    9.1973    0.0289 C   0  0  0  1  0  3  0  0  0  0  0  0
    2.7426    7.8119    0.0166 C   0  0  0  1  0  3  0  0  0  0  0  0
    3.3843   10.0142    0.0223 C   0  0  0  1  0  3  0  0  0  0  0  0
    4.1543    7.9435    0.0039 C   0  0  0  1  0  3  0  0  0  0  0  0
    1.3280   -0.4557   -0.0131 C   0  0  0  1  0  3  0  0  0  0  0  0
    0.0021   -0.0041    0.0020 C   0  0  0  1  0  3  0  0  0  0  0  0
    1.7313    1.8300   -0.0046 C   0  0  0  1  0  3  0  0  0  0  0  0
    2.2564    0.5986   -0.0163 C   0  0  0  1  0  3  0  0  0  0  0  0
    0.9674    9.7689    0.0437 C   0  0  0  1  0  3  0  0  0  0  0  0
    2.0050    6.6425    0.0178 C   0  0  0  1  0  3  0  0  0  0  0  0
    3.2272   11.4049    0.0317 C   0  0  0  1  0  3  0  0  0  0  0  0
    1.5707   -1.8508   -0.0229 C   0  0  0  1  0  3  0  0  0  0  0  0
   -1.0483   -0.9262    0.0071 C   0  0  0  1  0  3  0  0  0  0  0  0
    5.1350    6.7994   -0.0121 C   0  0  0  1  0  4  0  0  0  0  0  0
   -0.7820   -2.2796   -0.0023 C   0  0  0  1  0  3  0  0  0  0  0  0
    0.8383   11.1419    0.0527 C   0  0  0  1  0  3  0  0  0  0  0  0
    0.5373   -2.7319   -0.0173 C   0  0  0  1  0  3  0  0  0  0  0  0
    2.5138    3.0708   -0.0059 C   0  0  0  1  0  3  0  0  0  0  0  0
    1.9650   11.9524    0.0471 C   0  0  0  1  0  3  0  0  0  0  0  0
   -1.4574   -4.5587   -0.0067 C   0  0  0  1  0  4  0  0  0  0  0  0
    0.0885    9.1412    0.0485 H   0  0  0  1  0  1  0  0  0  0  0  0
    0.9259    6.6846    0.0287 H   0  0  0  1  0  1  0  0  0  0  0  0
    4.0953   12.0473    0.0272 H   0  0  0  1  0  1  0  0  0  0  0  0
    2.5865   -2.2173   -0.0349 H   0  0  0  1  0  1  0  0  0  0  0  0
   -2.0707   -0.5783    0.0187 H   0  0  0  1  0  1  0  0  0  0  0  0
    6.1516    7.1923   -0.0196 H   0  0  0  1  0  1  0  0  0  0  0  0
    4.9898    6.1840    0.8758 H   0  0  0  1  0  1  0  0  0  0  0  0
    4.9727    6.1942   -0.9040 H   0  0  0  1  0  1  0  0  0  0  0  0
    0.7390   -3.7929   -0.0253 H   0  0  0  1  0  1  0  0  0  0  0  0
   -0.1448   11.5889    0.0638 H   0  0  0  1  0  1  0  0  0  0  0  0
    1.8496   13.0262    0.0542 H   0  0  0  1  0  1  0  0  0  0  0  0
    3.6027    5.4105   -0.0044 H   0  0  0  1  0  1  0  0  0  0  0  0
    0.9169    4.3012    0.0163 H   0  0  0  1  0  1  0  0  0  0  0  0
   -0.8795   -4.7814   -0.9037 H   0  0  0  1  0  1  0  0  0  0  0  0
   -0.8616   -4.7902    0.8762 H   0  0  0  1  0  1  0  0  0  0  0  0
   -2.3655   -5.1615   -0.0006 H   0  0  0  1  0  1  0  0  0  0  0  0
  1 15  1  0  0  0  0
  2 13  1  0  0  0  0
  2 14  1  0  0  0  0
  3 22  1  0  0  0  0
  3 27  1  0  0  0  0
  4 25  2  0  0  0  0
  5 10  1  0  0  0  0
  5 11  2  0  0  0  0
  6  7  1  0  0  0  0
  6 17  1  0  0  0  0
  6 39  1  0  0  0  0
  7 25  1  0  0  0  0
  7 40  1  0  0  0  0
  8  9  1  0  0  0  0
  8 10  1  0  0  0  0
  8 16  2  0  0  0  0
  9 11  1  0  0  0  0
  9 17  2  0  0  0  0
 10 18  2  0  0  0  0
 11 21  1  0  0  0  0
 12 13  2  0  0  0  0
 12 15  1  0  0  0  0
 12 19  1  0  0  0  0
 13 20  1  0  0  0  0
 14 15  2  0  0  0  0
 14 25  1  0  0  0  0
 16 23  1  0  0  0  0
 16 28  1  0  0  0  0
 17 29  1  0  0  0  0
 18 26  1  0  0  0  0
 18 30  1  0  0  0  0
 19 24  2  0  0  0  0
 19 31  1  0  0  0  0
 20 22  2  0  0  0  0
 20 32  1  0  0  0  0
 21 33  1  0  0  0  0
 21 34  1  0  0  0  0
 21 35  1  0  0  0  0
 22 24  1  0  0  0  0
 23 26  2  0  0  0  0
 23 37  1  0  0  0  0
 24 36  1  0  0  0  0
 26 38  1  0  0  0  0
 27 41  1  0  0  0  0
 27 42  1  0  0  0  0
 27 43  1  0  0  0  0
M  END
> <Activity>
2.043

> <Mapped(file=504701.csv.activities,property=Cached(PUBCHEM_COMPOUND_CID))>
2.043

> <PUBCHEM_ATOM_DEF_STEREO_COUNT>
0

> <PUBCHEM_ATOM_UDEF_STEREO_COUNT>
0

> <PUBCHEM_BONDANNOTATIONS>
10  18  8
12  13  8
12  15  8
12  19  8
13  20  8
14  15  8
16  23  8
18  26  8
19  24  8
2  13  8
2  14  8
20  22  8
22  24  8
23  26  8
8  10  8
8  16  8

> <PUBCHEM_BOND_DEF_STEREO_COUNT>
1

> <PUBCHEM_BOND_UDEF_STEREO_COUNT>
0

> <PUBCHEM_CACTVS_COMPLEXITY>
641

> <PUBCHEM_CACTVS_HBOND_ACCEPTOR>
5

> <PUBCHEM_CACTVS_HBOND_DONOR>
2

> <PUBCHEM_CACTVS_ROTATABLE_BOND>
4

> <PUBCHEM_CACTVS_SUBSKEYS>
AAADceB7MABEAAAAAAAAAAAAAAAAASIAAAAwYAAAAAAAAEgB9AAAHgYYAAAADA7B2CYyx8JiBAisAyV2VACDCIAkLhJaqJk2btgMJjKlt5uAMSBkwBEo7QeYyKCOIAAABAAGAABAAAAIAAwAAAAAAAAAAA==

> <PUBCHEM_CACTVS_TAUTO_COUNT>
6

> <PUBCHEM_CACTVS_TPSA>
91

> <PUBCHEM_COMPONENT_COUNT>
1

> <PUBCHEM_COMPOUND_CANONICALIZED>
1

> <PUBCHEM_COMPOUND_CID>
6291421

> <PUBCHEM_COORDINATE_TYPE>
1
5
255

> <PUBCHEM_EXACT_MASS>
397.065175

> <PUBCHEM_HEAVY_ATOM_COUNT>
27

> <PUBCHEM_ISOTOPIC_ATOM_COUNT>
0

> <PUBCHEM_IUPAC_CAS_NAME>
3-chloro-6-methoxy-N'-[(Z)-(2-methyl-3-indolylidene)methyl]-1-benzothiophene-2-carbohydrazide

> <PUBCHEM_IUPAC_INCHI>
InChI=1S/C20H16ClN3O2S/c1-11-15(13-5-3-4-6-16(13)23-11)10-22-24-20(25)19-18(21)14-8-7-12(26-2)9-17(14)27-19/h3-10,22H,1-2H3,(H,24,25)/b15-10+

> <PUBCHEM_IUPAC_INCHIKEY>
BWZYEMCIAIZOIC-XNTDXEJSSA-N

> <PUBCHEM_IUPAC_NAME>
3-chloro-6-methoxy-N'-[(Z)-(2-methylindol-3-ylidene)methyl]-1-benzothiophene-2-carbohydrazide

> <PUBCHEM_IUPAC_OPENEYE_NAME>
3-chloro-6-methoxy-N'-[(Z)-(2-methylindol-3-ylidene)methyl]benzothiophene-2-carbohydrazide

> <PUBCHEM_IUPAC_SYSTEMATIC_NAME>
3-chloranyl-6-methoxy-N'-[(Z)-(2-methylindol-3-ylidene)methyl]-1-benzothiophene-2-carbohydrazide

> <PUBCHEM_IUPAC_TRADITIONAL_NAME>
3-chloro-6-methoxy-N'-[(Z)-(2-methylindol-3-ylidene)methyl]benzothiophene-2-carbohydrazide

> <PUBCHEM_MOLECULAR_FORMULA>
C20H16ClN3O2S

> <PUBCHEM_MOLECULAR_WEIGHT>
397.87794

> <PUBCHEM_MONOISOTOPIC_WEIGHT>
397.065175

> <PUBCHEM_OPENEYE_CAN_SMILES>
CC1=NC2=CC=CC=C2C1=CNNC(=O)C3=C(C4=C(S3)C=C(C=C4)OC)Cl

> <PUBCHEM_OPENEYE_ISO_SMILES>
CC\1=NC2=CC=CC=C2/C1=C/NNC(=O)C3=C(C4=C(S3)C=C(C=C4)OC)Cl

> <PUBCHEM_TOTAL_CHARGE>
0

> <PUBCHEM_XLOGP3_AA>
4.7

$$$$
Written by BCL::WriteToMDL,4089709
MBcorina  10171218483D 1   1.00000     0.00000 
CORINA 3.49 0026  01.06.2011
 43 46  0  0  0  0  0  0  0  0999 V2000
    0.0712    1.4289   -0.0493 S   0  0  0  1  0  4  0  0  0  0  0  0
   -3.1216   -1.0773    3.7741 S   0  0  0  1  0  2  0  0  0  0  0  0
    0.0798    0.0080   -0.0370 O   0  0  0  1  0  1  0  0  0  0  0  0
    1.2523    2.2124   -0.1520 O   0  0  0  1  0  1  0  0  0  0  0  0
   -4.3519    2.1525    4.9376 O   0  0  0  1  0  1  0  0  0  0  0  0
   -4.7131    2.9134   -2.7138 O   0  0  0  1  0  2  0  0  0  0  0  0
   -3.2281    1.3810   -2.0997 O   0  0  0  1  0  1  0  0  0  0  0  0
   -3.1324    0.6119    3.8852 N   0  0  0  1  0  3  0  0  0  0  0  0
   -0.9002    1.8797   -1.3124 N   0  0  0  1  0  3  0  0  0  0  0  0
   -0.7339    1.9345    1.4342 C   0  0  0  1  0  3  0  0  0  0  0  0
   -2.2447    1.4765    3.2396 C   0  0  0  1  0  3  0  0  0  0  0  0
   -1.6103    1.0771    2.0700 C   0  0  0  1  0  3  0  0  0  0  0  0
   -4.9372   -0.0898    5.2609 C   0  0  0  1  0  3  0  0  0  0  0  0
   -4.1286    0.9800    4.6904 C   0  0  0  1  0  3  0  0  0  0  0  0
   -4.4998   -1.3581    4.8401 C   0  0  0  1  0  3  0  0  0  0  0  0
   -0.4832    3.1870    1.9636 C   0  0  0  1  0  3  0  0  0  0  0  0
   -1.9947    2.7382    3.7657 C   0  0  0  1  0  3  0  0  0  0  0  0
   -1.2125    3.2188   -1.5044 C   0  0  0  1  0  3  0  0  0  0  0  0
   -1.1130    3.5880    3.1279 C   0  0  0  1  0  3  0  0  0  0  0  0
   -6.0423   -0.0267    6.1332 C   0  0  0  1  0  3  0  0  0  0  0  0
   -5.1407   -2.5118    5.2736 C   0  0  0  1  0  3  0  0  0  0  0  0
   -2.4842    3.5871   -1.9729 C   0  0  0  1  0  3  0  0  0  0  0  0
   -0.2707    4.2021   -1.2286 C   0  0  0  1  0  3  0  0  0  0  0  0
   -6.6595   -1.1676    6.5483 C   0  0  0  1  0  3  0  0  0  0  0  0
   -6.2186   -2.4147    6.1266 C   0  0  0  1  0  3  0  0  0  0  0  0
   -2.7852    4.9388   -2.1611 C   0  0  0  1  0  3  0  0  0  0  0  0
   -0.5839    5.5324   -1.4193 C   0  0  0  1  0  3  0  0  0  0  0  0
   -1.8359    5.8988   -1.8870 C   0  0  0  1  0  3  0  0  0  0  0  0
   -3.4941    2.5552   -2.2644 C   0  0  0  1  0  3  0  0  0  0  0  0
   -1.8026    0.0974    1.6582 H   0  0  0  1  0  1  0  0  0  0  0  0
    0.2063    3.8537    1.4670 H   0  0  0  1  0  1  0  0  0  0  0  0
   -2.4861    3.0519    4.6748 H   0  0  0  1  0  1  0  0  0  0  0  0
   -1.2510    1.2082   -1.9181 H   0  0  0  1  0  1  0  0  0  0  0  0
   -0.9146    4.5669    3.5389 H   0  0  0  1  0  1  0  0  0  0  0  0
   -6.4024    0.9327    6.4744 H   0  0  0  1  0  1  0  0  0  0  0  0
   -4.7959   -3.4805    4.9434 H   0  0  0  1  0  1  0  0  0  0  0  0
    0.7075    3.9251   -0.8642 H   0  0  0  1  0  1  0  0  0  0  0  0
   -7.5053   -1.1011    7.2165 H   0  0  0  1  0  1  0  0  0  0  0  0
   -6.7207   -3.3085    6.4664 H   0  0  0  1  0  1  0  0  0  0  0  0
   -3.7607    5.2304   -2.5214 H   0  0  0  1  0  1  0  0  0  0  0  0
    0.1517    6.2930   -1.2031 H   0  0  0  1  0  1  0  0  0  0  0  0
   -2.0702    6.9429   -2.0334 H   0  0  0  1  0  1  0  0  0  0  0  0
   -5.3424    2.2009   -2.8913 H   0  0  0  1  0  1  0  0  0  0  0  0
  1  3  2  0  0  0  0
  1  4  2  0  0  0  0
  1  9  1  0  0  0  0
  1 10  1  0  0  0  0
  2  8  1  0  0  0  0
  2 15  1  0  0  0  0
  5 14  2  0  0  0  0
  6 29  1  0  0  0  0
  6 43  1  0  0  0  0
  7 29  2  0  0  0  0
  8 11  1  0  0  0  0
  8 14  1  0  0  0  0
  9 18  1  0  0  0  0
  9 33  1  0  0  0  0
 10 12  1  0  0  0  0
 10 16  2  0  0  0  0
 11 12  2  0  0  0  0
 11 17  1  0  0  0  0
 12 30  1  0  0  0  0
 13 14  1  0  0  0  0
 13 15  1  0  0  0  0
 13 20  2  0  0  0  0
 15 21  2  0  0  0  0
 16 19  1  0  0  0  0
 16 31  1  0  0  0  0
 17 19  2  0  0  0  0
 17 32  1  0  0  0  0
 18 22  1  0  0  0  0
 18 23  2  0  0  0  0
 19 34  1  0  0  0  0
 20 24  1  0  0  0  0
 20 35  1  0  0  0  0
 21 25  1  0  0  0  0
 21 36  1  0  0  0  0
 22 26  2  0  0  0  0
 22 29  1  0  0  0  0
 23 27  1  0  0  0  0
 23 37  1  0  0  0  0
 24 25  2  0  0  0  0
 24 38  1  0  0  0  0
 25 39  1  0  0  0  0
 26 28  1  0  0  0  0
 26 40  1  0  0  0  0
 27 28  2  0  0  0  0
 27 41  1  0  0  0  0
 28 42  1  0  0  0  0
M  END
> <Activity>
1.278

> <Mapped(file=504701.csv.activities,property=Cached(PUBCHEM_COMPOUND_CID))>
1.278

> <PUBCHEM_ATOM_DEF_STEREO_COUNT>
0

> <PUBCHEM_ATOM_UDEF_STEREO_COUNT>
0

> <PUBCHEM_BONDANNOTATIONS>
10  12  8
10  16  8
11  12  8
11  17  8
13  14  8
13  15  8
13  20  8
15  21  8
16  19  8
17  19  8
18  22  8
18  23  8
2  15  8
2  8  8
20  24  8
21  25  8
22  26  8
23  27  8
24  25  8
26  28  8
27  28  8
8  14  8

> <PUBCHEM_BOND_DEF_STEREO_COUNT>
0

> <PUBCHEM_BOND_UDEF_STEREO_COUNT>
0

> <PUBCHEM_CACTVS_COMPLEXITY>
738

> <PUBCHEM_CACTVS_HBOND_ACCEPTOR>
7

> <PUBCHEM_CACTVS_HBOND_DONOR>
2

> <PUBCHEM_CACTVS_ROTATABLE_BOND>
5

> <PUBCHEM_CACTVS_SUBSKEYS>
AAADccB7OABgAAAAAAAAAAAAAAAAAWAAAAAwYMAAAAAAAFgBUAAAHgQQSAAADAiB2AAwyYJAAgKIAiXSWHDCABAlAgAIiBkAbMgIJjrAlZGEcYxm1AHI2ceYyCCOAAAAACAGAAAAAAAAQAwAAAAAAAAAAA==

> <PUBCHEM_CACTVS_TAUTO_COUNT>
4

> <PUBCHEM_CACTVS_TPSA>
138

> <PUBCHEM_COMPONENT_COUNT>
1

> <PUBCHEM_COMPOUND_CANONICALIZED>
1

> <PUBCHEM_COMPOUND_CID>
4089709

> <PUBCHEM_COORDINATE_TYPE>
1
3

> <PUBCHEM_EXACT_MASS>
426.034414

> <PUBCHEM_HEAVY_ATOM_COUNT>
29

> <PUBCHEM_ISOTOPIC_ATOM_COUNT>
0

> <PUBCHEM_IUPAC_CAS_NAME>
2-[[3-(3-oxo-1,2-benzothiazol-2-yl)phenyl]sulfonylamino]benzoic acid

> <PUBCHEM_IUPAC_INCHI>
InChI=1S/C20H14N2O5S2/c23-19-16-9-2-4-11-18(16)28-22(19)13-6-5-7-14(12-13)29(26,27)21-17-10-3-1-8-15(17)20(24)25/h1-12,21H,(H,24,25)

> <PUBCHEM_IUPAC_INCHIKEY>
FEVKOYDOEFRIDM-UHFFFAOYSA-N

> <PUBCHEM_IUPAC_NAME>
2-[[3-(3-oxo-1,2-benzothiazol-2-yl)phenyl]sulfonylamino]benzoic acid

> <PUBCHEM_IUPAC_OPENEYE_NAME>
2-[[3-(3-oxo-1,2-benzothiazol-2-yl)phenyl]sulfonylamino]benzoic acid

> <PUBCHEM_IUPAC_SYSTEMATIC_NAME>
2-[[3-(3-oxidanylidene-1,2-benzothiazol-2-yl)phenyl]sulfonylamino]benzoic acid

> <PUBCHEM_IUPAC_TRADITIONAL_NAME>
2-[[3-(3-keto-1,2-benzothiazol-2-yl)phenyl]sulfonylamino]benzoic acid

> <PUBCHEM_MOLECULAR_FORMULA>
C20H14N2O5S2

> <PUBCHEM_MOLECULAR_WEIGHT>
426.46556

> <PUBCHEM_MONOISOTOPIC_WEIGHT>
426.034414

> <PUBCHEM_OPENEYE_CAN_SMILES>
C1=CC=C2C(=C1)C(=O)N(S2)C3=CC(=CC=C3)S(=O)(=O)NC4=CC=CC=C4C(=O)O

> <PUBCHEM_OPENEYE_ISO_SMILES>
C1=CC=C2C(=C1)C(=O)N(S2)C3=CC(=CC=C3)S(=O)(=O)NC4=CC=CC=C4C(=O)O

> <PUBCHEM_TOTAL_CHARGE>
0

> <PUBCHEM_XLOGP3_AA>
3.6

$$$$
Written by BCL::WriteToMDL,1935506
MBcorina  10171218483D 1   1.00000     0.00000 
CORINA 3.49 0026  01.06.2011
 31 33  0  0  0  0  0  0  0  0999 V2000
   -0.0162    1.3433    0.0094 O   0  0  0  1  0  2  0  0  0  0  0  0
    1.0624   -0.5972   -0.0113 O   0  0  0  1  0  1  0  0  0  0  0  0
   -4.6930   -3.0811    0.0316 N   0  0  0  1  0  3  0  0  0  0  0  0
   -2.4468   -2.8524    0.0106 C   0  0  0  1  0  3  0  0  0  0  0  0
   -2.7830   -4.2886    0.0062 C   0  0  0  1  0  3  0  0  0  0  0  0
   -3.6685   -2.1579    0.0264 C   0  0  0  1  0  3  0  0  0  0  0  0
   -4.1835   -4.3676    0.0197 C   0  0  0  1  0  3  0  0  0  0  0  0
   -1.2473   -2.1529    0.0024 C   0  0  0  1  0  3  0  0  0  0  0  0
   -3.6658   -0.7631    0.0339 C   0  0  0  1  0  3  0  0  0  0  0  0
   -1.2649   -0.7587    0.0101 C   0  0  0  1  0  3  0  0  0  0  0  0
   -2.0184   -5.4518   -0.0076 C   0  0  0  1  0  3  0  0  0  0  0  0
   -4.7947   -5.6174    0.0186 C   0  0  0  1  0  3  0  0  0  0  0  0
   -2.4883   -0.0759    0.0259 C   0  0  0  1  0  3  0  0  0  0  0  0
   -2.6423   -6.6814   -0.0088 C   0  0  0  1  0  3  0  0  0  0  0  0
   -4.0259   -6.7616    0.0044 C   0  0  0  1  0  3  0  0  0  0  0  0
    0.0021   -0.0041    0.0020 C   0  0  0  1  0  3  0  0  0  0  0  0
    1.2684    2.0200    0.0008 C   0  0  0  1  0  4  0  0  0  0  0  0
    1.0474    3.5339    0.0110 C   0  0  0  1  0  4  0  0  0  0  0  0
   -5.6374   -2.8599    0.0459 H   0  0  0  1  0  1  0  0  0  0  0  0
   -0.3075   -2.6849   -0.0094 H   0  0  0  1  0  1  0  0  0  0  0  0
   -4.6018   -0.2244    0.0457 H   0  0  0  1  0  1  0  0  0  0  0  0
   -0.9401   -5.3914   -0.0184 H   0  0  0  1  0  1  0  0  0  0  0  0
   -5.8721   -5.6912    0.0293 H   0  0  0  1  0  1  0  0  0  0  0  0
   -2.4986    1.0040    0.0314 H   0  0  0  1  0  1  0  0  0  0  0  0
   -2.0509   -7.5850   -0.0199 H   0  0  0  1  0  1  0  0  0  0  0  0
   -4.5060   -7.7291    0.0041 H   0  0  0  1  0  1  0  0  0  0  0  0
    1.8378    1.7300    0.8838 H   0  0  0  1  0  1  0  0  0  0  0  0
    1.8208    1.7395   -0.8960 H   0  0  0  1  0  1  0  0  0  0  0  0
    0.4780    3.8240   -0.8720 H   0  0  0  1  0  1  0  0  0  0  0  0
    0.4950    3.8144    0.9079 H   0  0  0  1  0  1  0  0  0  0  0  0
    2.0118    4.0419    0.0046 H   0  0  0  1  0  1  0  0  0  0  0  0
  1 16  1  0  0  0  0
  1 17  1  0  0  0  0
  2 16  2  0  0  0  0
  3  6  1  0  0  0  0
  3  7  1  0  0  0  0
  3 19  1  0  0  0  0
  4  5  1  0  0  0  0
  4  6  2  0  0  0  0
  4  8  1  0  0  0  0
  5  7  1  0  0  0  0
  5 11  2  0  0  0  0
  6  9  1  0  0  0  0
  7 12  2  0  0  0  0
  8 10  2  0  0  0  0
  8 20  1  0  0  0  0
  9 13  2  0  0  0  0
  9 21  1  0  0  0  0
 10 13  1  0  0  0  0
 10 16  1  0  0  0  0
 11 14  1  0  0  0  0
 11 22  1  0  0  0  0
 12 15  1  0  0  0  0
 12 23  1  0  0  0  0
 13 24  1  0  0  0  0
 14 15  2  0  0  0  0
 14 25  1  0  0  0  0
 15 26  1  0  0  0  0
 17 18  1  0  0  0  0
 17 27  1  0  0  0  0
 17 28  1  0  0  0  0
 18 29  1  0  0  0  0
 18 30  1  0  0  0  0
 18 31  1  0  0  0  0
M  END
> <Activity>
1.985

> <Mapped(file=504701.csv.activities,property=Cached(PUBCHEM_COMPOUND_CID))>
1.985

> <PUBCHEM_ATOM_DEF_STEREO_COUNT>
0

> <PUBCHEM_ATOM_UDEF_STEREO_COUNT>
0

> <PUBCHEM_BONDANNOTATIONS>
10  13  8
11  14  8
12  15  8
14  15  8
3  6  8
3  7  8
4  5  8
4  6  8
4  8  8
5  11  8
5  7  8
6  9  8
7  12  8
8  10  8
9  13  8

> <PUBCHEM_BOND_DEF_STEREO_COUNT>
0

> <PUBCHEM_BOND_UDEF_STEREO_COUNT>
0

> <PUBCHEM_CACTVS_COMPLEXITY>
318

> <PUBCHEM_CACTVS_HBOND_ACCEPTOR>
2

> <PUBCHEM_CACTVS_HBOND_DONOR>
1

> <PUBCHEM_CACTVS_ROTATABLE_BOND>
3

> <PUBCHEM_CACTVS_SUBSKEYS>
AAADccByMAAAAAAAAAAAAAAAAAAAAWAAAAAwYAAAAAAAAFgB/AAAHgAQAAAADAihngIyyPLJlACoAyTyTACCgCAlAiAImSEwbNgIJvLAtZmGMQhk0AHI6YeY2fOeiAACAAACAAAQAAQAAAQAAAAAAAAAAA==

> <PUBCHEM_CACTVS_TAUTO_COUNT>
3

> <PUBCHEM_CACTVS_TPSA>
42.1

> <PUBCHEM_COMPONENT_COUNT>
1

> <PUBCHEM_COMPOUND_CANONICALIZED>
1

> <PUBCHEM_COMPOUND_CID>
1935506

> <PUBCHEM_COORDINATE_TYPE>
1
5
255

> <PUBCHEM_EXACT_MASS>
239.094629

> <PUBCHEM_HEAVY_ATOM_COUNT>
18

> <PUBCHEM_ISOTOPIC_ATOM_COUNT>
0

> <PUBCHEM_IUPAC_CAS_NAME>
9H-carbazole-3-carboxylic acid ethyl ester

> <PUBCHEM_IUPAC_INCHI>
InChI=1S/C15H13NO2/c1-2-18-15(17)10-7-8-14-12(9-10)11-5-3-4-6-13(11)16-14/h3-9,16H,2H2,1H3

> <PUBCHEM_IUPAC_INCHIKEY>
NLLKBEGFXZYBFX-UHFFFAOYSA-N

> <PUBCHEM_IUPAC_NAME>
ethyl 9H-carbazole-3-carboxylate

> <PUBCHEM_IUPAC_OPENEYE_NAME>
ethyl 9H-carbazole-3-carboxylate

> <PUBCHEM_IUPAC_SYSTEMATIC_NAME>
ethyl 9H-carbazole-3-carboxylate

> <PUBCHEM_IUPAC_TRADITIONAL_NAME>
9H-carbazole-3-carboxylic acid ethyl ester

> <PUBCHEM_MOLECULAR_FORMULA>
C15H13NO2

> <PUBCHEM_MOLECULAR_WEIGHT>
239.26922

> <PUBCHEM_MONOISOTOPIC_WEIGHT>
239.094629

> <PUBCHEM_OPENEYE_CAN_SMILES>
CCOC(=O)C1=CC2=C(C=C1)NC3=CC=CC=C32

> <PUBCHEM_OPENEYE_ISO_SMILES>
CCOC(=O)C1=CC2=C(C=C1)NC3=CC=CC=C32

> <PUBCHEM_TOTAL_CHARGE>
0

> <PUBCHEM_XLOGP3_AA>
3.6

$$$$
Written by BCL::WriteToMDL,44142494
MBcorina  10171218483D 1   1.00000     0.00000 
CORINA 3.49 0026  01.06.2011
 43 45  0  0  0  0  0  0  0  0999 V2000
   -0.0205    1.7467    0.0671 S   0  0  0  1  0  2  0  0  0  0  0  0
    5.8533    1.4251   -0.1314 O   0  0  0  1  0  2  0  0  0  0  0  0
    3.5958   -4.6115   -0.2816 O   0  0  0  1  0  2  0  0  0  0  0  0
   -4.6043   -3.2616    0.0293 N   0  0  0  1  0  3  0  0  0  0  0  0
    0.0021   -0.0041    0.0020 C   0  0  0  1  0  3  0  0  0  0  0  0
    2.2942    0.5746   -0.0495 C   0  0  0  1  0  3  0  0  0  0  0  0
    1.2765   -0.4730   -0.0557 C   0  0  0  1  0  3  0  0  0  0  0  0
   -1.2022   -0.8560    0.0094 C   0  0  0  1  0  3  0  0  0  0  0  0
    1.7347    1.8507    0.0152 C   0  0  0  1  0  3  0  0  0  0  0  0
   -3.4653   -2.4562    0.0227 C   0  0  0  1  0  3  0  0  0  0  0  0
    3.6983    0.4445   -0.0999 C   0  0  0  1  0  3  0  0  0  0  0  0
   -2.2140   -0.6306    0.9468 C   0  0  0  1  0  3  0  0  0  0  0  0
   -1.3367   -1.8868   -0.9247 C   0  0  0  1  0  3  0  0  0  0  0  0
    2.5682    2.9748    0.0305 C   0  0  0  1  0  3  0  0  0  0  0  0
   -3.3373   -1.4279    0.9504 C   0  0  0  1  0  3  0  0  0  0  0  0
   -2.4628   -2.6801   -0.9151 C   0  0  0  1  0  3  0  0  0  0  0  0
    4.5012    1.5616   -0.0825 C   0  0  0  1  0  3  0  0  0  0  0  0
    3.9339    2.8314   -0.0178 C   0  0  0  1  0  3  0  0  0  0  0  0
    1.5928   -1.8683   -0.1171 C   0  0  0  1  0  2  0  0  0  0  0  0
   -5.6639   -3.0238    1.0127 C   0  0  0  1  0  4  0  0  0  0  0  0
   -4.7410   -4.3452   -0.9470 C   0  0  0  1  0  4  0  0  0  0  0  0
    1.8521   -3.0122   -0.1674 C   0  0  0  1  0  2  0  0  0  0  0  0
    6.6278    2.6259   -0.1099 C   0  0  0  1  0  4  0  0  0  0  0  0
    2.1773   -4.4465   -0.2305 C   0  0  0  1  0  4  0  0  0  0  0  0
    4.1452   -0.5374   -0.1498 H   0  0  0  1  0  1  0  0  0  0  0  0
   -2.1151    0.1674    1.6677 H   0  0  0  1  0  1  0  0  0  0  0  0
   -0.5588   -2.0611   -1.6534 H   0  0  0  1  0  1  0  0  0  0  0  0
    2.1346    3.9627    0.0802 H   0  0  0  1  0  1  0  0  0  0  0  0
   -4.1177   -1.2569    1.6771 H   0  0  0  1  0  1  0  0  0  0  0  0
   -2.5654   -3.4797   -1.6338 H   0  0  0  1  0  1  0  0  0  0  0  0
    4.5684    3.7053   -0.0058 H   0  0  0  1  0  1  0  0  0  0  0  0
   -6.3874   -2.3185    0.6039 H   0  0  0  1  0  1  0  0  0  0  0  0
   -4.3141   -5.2602   -0.5364 H   0  0  0  1  0  1  0  0  0  0  0  0
   -5.7964   -4.5041   -1.1682 H   0  0  0  1  0  1  0  0  0  0  0  0
   -4.2141   -4.0776   -1.8630 H   0  0  0  1  0  1  0  0  0  0  0  0
   -6.1637   -3.9646    1.2430 H   0  0  0  1  0  1  0  0  0  0  0  0
   -5.2288   -2.6112    1.9230 H   0  0  0  1  0  1  0  0  0  0  0  0
    7.6877    2.3754   -0.1538 H   0  0  0  1  0  1  0  0  0  0  0  0
    6.3645    3.2435   -0.9686 H   0  0  0  1  0  1  0  0  0  0  0  0
    6.4219    3.1746    0.8091 H   0  0  0  1  0  1  0  0  0  0  0  0
    1.7284   -4.8819   -1.1233 H   0  0  0  1  0  1  0  0  0  0  0  0
    1.7849   -4.9473    0.6546 H   0  0  0  1  0  1  0  0  0  0  0  0
    3.8831   -5.5338   -0.3247 H   0  0  0  1  0  1  0  0  0  0  0  0
  1  5  1  0  0  0  0
  1  9  1  0  0  0  0
  2 17  1  0  0  0  0
  2 23  1  0  0  0  0
  3 24  1  0  0  0  0
  3 43  1  0  0  0  0
  4 10  1  0  0  0  0
  4 20  1  0  0  0  0
  4 21  1  0  0  0  0
  5  7  2  0  0  0  0
  5  8  1  0  0  0  0
  6  7  1  0  0  0  0
  6  9  2  0  0  0  0
  6 11  1  0  0  0  0
  7 19  1  0  0  0  0
  8 12  2  0  0  0  0
  8 13  1  0  0  0  0
  9 14  1  0  0  0  0
 10 15  2  0  0  0  0
 10 16  1  0  0  0  0
 11 17  2  0  0  0  0
 11 25  1  0  0  0  0
 12 15  1  0  0  0  0
 12 26  1  0  0  0  0
 13 16  2  0  0  0  0
 13 27  1  0  0  0  0
 14 18  2  0  0  0  0
 14 28  1  0  0  0  0
 15 29  1  0  0  0  0
 16 30  1  0  0  0  0
 17 18  1  0  0  0  0
 18 31  1  0  0  0  0
 19 22  3  0  0  0  0
 20 32  1  0  0  0  0
 20 36  1  0  0  0  0
 20 37  1  0  0  0  0
 21 33  1  0  0  0  0
 21 34  1  0  0  0  0
 21 35  1  0  0  0  0
 22 24  1  0  0  0  0
 23 38  1  0  0  0  0
 23 39  1  0  0  0  0
 23 40  1  0  0  0  0
 24 41  1  0  0  0  0
 24 42  1  0  0  0  0
M  END
> <Activity>
6.091

> <Mapped(file=504701.csv.activities,property=Cached(PUBCHEM_COMPOUND_CID))>
6.091

> <PUBCHEM_ATOM_DEF_STEREO_COUNT>
0

> <PUBCHEM_ATOM_UDEF_STEREO_COUNT>
0

> <PUBCHEM_BONDANNOTATIONS>
1  5  8
1  9  8
10  15  8
10  16  8
11  17  8
12  15  8
13  16  8
14  18  8
17  18  8
5  7  8
6  11  8
6  7  8
6  9  8
8  12  8
8  13  8
9  14  8

> <PUBCHEM_BOND_DEF_STEREO_COUNT>
0

> <PUBCHEM_BOND_UDEF_STEREO_COUNT>
0

> <PUBCHEM_CACTVS_COMPLEXITY>
475

> <PUBCHEM_CACTVS_HBOND_ACCEPTOR>
4

> <PUBCHEM_CACTVS_HBOND_DONOR>
1

> <PUBCHEM_CACTVS_ROTATABLE_BOND>
4

> <PUBCHEM_CACTVS_SUBSKEYS>
AAADceB6MABAAAAAAAAAAAAAAAAAASAAAAAwYAAAAAAAAEgB9AAAHgQACAAADAyh2AYyx8MABgjEEiRCQAiDCIAhKhBIiBgObIgMNiLksZuEMChkwBFo6AeQwPAOiIABAAAEAAARAAIAAAgAAAAAAAAAAA==

> <PUBCHEM_CACTVS_TAUTO_COUNT>
1

> <PUBCHEM_CACTVS_TPSA>
60.9

> <PUBCHEM_COMPONENT_COUNT>
1

> <PUBCHEM_COMPOUND_CANONICALIZED>
1

> <PUBCHEM_COMPOUND_CID>
44142494

> <PUBCHEM_COORDINATE_TYPE>
1
5
255

> <PUBCHEM_EXACT_MASS>
337.11365

> <PUBCHEM_HEAVY_ATOM_COUNT>
24

> <PUBCHEM_ISOTOPIC_ATOM_COUNT>
0

> <PUBCHEM_IUPAC_CAS_NAME>
3-[2-[4-(dimethylamino)phenyl]-5-methoxy-1-benzothiophen-3-yl]-2-propyn-1-ol

> <PUBCHEM_IUPAC_INCHI>
InChI=1S/C20H19NO2S/c1-21(2)15-8-6-14(7-9-15)20-17(5-4-12-22)18-13-16(23-3)10-11-19(18)24-20/h6-11,13,22H,12H2,1-3H3

> <PUBCHEM_IUPAC_INCHIKEY>
NHRNVKYKZDAAPC-UHFFFAOYSA-N

> <PUBCHEM_IUPAC_NAME>
3-[2-[4-(dimethylamino)phenyl]-5-methoxy-1-benzothiophen-3-yl]prop-2-yn-1-ol

> <PUBCHEM_IUPAC_OPENEYE_NAME>
3-[2-[4-(dimethylamino)phenyl]-5-methoxy-benzothiophen-3-yl]prop-2-yn-1-ol

> <PUBCHEM_IUPAC_SYSTEMATIC_NAME>
3-[2-[4-(dimethylamino)phenyl]-5-methoxy-1-benzothiophen-3-yl]prop-2-yn-1-ol

> <PUBCHEM_IUPAC_TRADITIONAL_NAME>
3-[2-[4-(dimethylamino)phenyl]-5-methoxy-benzothiophen-3-yl]prop-2-yn-1-ol

> <PUBCHEM_MOLECULAR_FORMULA>
C20H19NO2S

> <PUBCHEM_MOLECULAR_WEIGHT>
337.43536

> <PUBCHEM_MONOISOTOPIC_WEIGHT>
337.11365

> <PUBCHEM_OPENEYE_CAN_SMILES>
CN(C)C1=CC=C(C=C1)C2=C(C3=C(S2)C=CC(=C3)OC)C#CCO

> <PUBCHEM_OPENEYE_ISO_SMILES>
CN(C)C1=CC=C(C=C1)C2=C(C3=C(S2)C=CC(=C3)OC)C#CCO

> <PUBCHEM_TOTAL_CHARGE>
0

> <PUBCHEM_XLOGP3_AA>
4.2

$$$$
Written by BCL::WriteToMDL,5310837
MBcorina  10171218483D 1   1.00000     0.00000 
CORINA 3.49 0026  01.06.2011
 30 32  0  0  0  0  0  0  0  0999 V2000
   -0.0218    1.7575    0.0117 S   0  0  0  1  0  2  0  0  0  0  0  0
   -2.1091   -3.0595   -0.0101 O   0  0  0  1  0  2  0  0  0  0  0  0
   -2.7614    0.8735   -0.1963 O   0  0  0  1  0  1  0  0  0  0  0  0
   -6.6047   -3.9733    1.2019 O   0  0  0  1  0  2  0  0  0  0  0  0
    1.2392   -0.4124   -0.0120 N   0  0  0  1  0  2  0  0  0  0  0  0
   -3.6410   -1.2546    0.3254 C   0  0  0  1  0  3  0  0  0  0  0  0
   -4.9263   -0.8098    0.6336 C   0  0  0  1  0  3  0  0  0  0  0  0
   -3.3462   -2.6291    0.3008 C   0  0  0  1  0  3  0  0  0  0  0  0
   -2.5511   -0.3064    0.0252 C   0  0  0  1  0  3  0  0  0  0  0  0
   -1.1891   -0.8778    0.0091 C   0  0  0  1  0  3  0  0  0  0  0  0
   -5.9054   -1.7174    0.9226 C   0  0  0  1  0  3  0  0  0  0  0  0
   -4.3537   -3.5379    0.6007 C   0  0  0  1  0  3  0  0  0  0  0  0
    0.0021   -0.0041    0.0020 C   0  0  0  1  0  3  0  0  0  0  0  0
   -5.6237   -3.0820    0.9091 C   0  0  0  1  0  3  0  0  0  0  0  0
   -1.0641   -2.2334    0.0011 C   0  0  0  1  0  3  0  0  0  0  0  0
   -5.2335    0.6655    0.6486 C   0  0  0  1  0  4  0  0  0  0  0  0
    2.1728    0.5132   -0.0159 C   0  0  0  1  0  3  0  0  0  0  0  0
    1.7405    1.7769   -0.0050 C   0  0  0  1  0  3  0  0  0  0  0  0
    3.6401    0.1697   -0.0318 C   0  0  0  1  0  4  0  0  0  0  0  0
   -6.9017   -1.3760    1.1621 H   0  0  0  1  0  1  0  0  0  0  0  0
   -4.1463   -4.5978    0.5927 H   0  0  0  1  0  1  0  0  0  0  0  0
   -0.0715   -2.6589    0.0044 H   0  0  0  1  0  1  0  0  0  0  0  0
   -5.5608    0.9787   -0.3428 H   0  0  0  1  0  1  0  0  0  0  0  0
   -6.0241    0.8647    1.3721 H   0  0  0  1  0  1  0  0  0  0  0  0
   -4.3376    1.2203    0.9275 H   0  0  0  1  0  1  0  0  0  0  0  0
    2.3636    2.6590   -0.0065 H   0  0  0  1  0  1  0  0  0  0  0  0
    3.9841    0.0928   -1.0632 H   0  0  0  1  0  1  0  0  0  0  0  0
    4.2016    0.9504    0.4813 H   0  0  0  1  0  1  0  0  0  0  0  0
    3.7957   -0.7827    0.4751 H   0  0  0  1  0  1  0  0  0  0  0  0
   -7.1102   -4.2688    0.4322 H   0  0  0  1  0  1  0  0  0  0  0  0
  1 13  1  0  0  0  0
  1 18  1  0  0  0  0
  2  8  1  0  0  0  0
  2 15  1  0  0  0  0
  3  9  2  0  0  0  0
  4 14  1  0  0  0  0
  4 30  1  0  0  0  0
  5 13  2  0  0  0  0
  5 17  1  0  0  0  0
  6  7  1  0  0  0  0
  6  8  2  0  0  0  0
  6  9  1  0  0  0  0
  7 11  2  0  0  0  0
  7 16  1  0  0  0  0
  8 12  1  0  0  0  0
  9 10  1  0  0  0  0
 10 13  1  0  0  0  0
 10 15  2  0  0  0  0
 11 14  1  0  0  0  0
 11 20  1  0  0  0  0
 12 14  2  0  0  0  0
 12 21  1  0  0  0  0
 15 22  1  0  0  0  0
 16 23  1  0  0  0  0
 16 24  1  0  0  0  0
 16 25  1  0  0  0  0
 17 18  2  0  0  0  0
 17 19  1  0  0  0  0
 18 26  1  0  0  0  0
 19 27  1  0  0  0  0
 19 28  1  0  0  0  0
 19 29  1  0  0  0  0
M  END
> <Activity>
2.538

> <Mapped(file=504701.csv.activities,property=Cached(PUBCHEM_COMPOUND_CID))>
2.538

> <PUBCHEM_ATOM_DEF_STEREO_COUNT>
0

> <PUBCHEM_ATOM_UDEF_STEREO_COUNT>
0

> <PUBCHEM_BONDANNOTATIONS>
1  13  8
1  18  8
10  15  8
11  14  8
12  14  8
17  18  8
2  15  8
2  8  8
5  13  8
5  17  8
6  7  8
6  8  8
6  9  8
7  11  8
8  12  8
9  10  8

> <PUBCHEM_BOND_DEF_STEREO_COUNT>
0

> <PUBCHEM_BOND_UDEF_STEREO_COUNT>
0

> <PUBCHEM_CACTVS_COMPLEXITY>
412

> <PUBCHEM_CACTVS_HBOND_ACCEPTOR>
4

> <PUBCHEM_CACTVS_HBOND_DONOR>
1

> <PUBCHEM_CACTVS_ROTATABLE_BOND>
1

> <PUBCHEM_CACTVS_SUBSKEYS>
AAADccByMABAAAAAAAAAAAAAAAAAAWAAAAAwQAAAAAAAAACBwAAAHgQACAAADAyl3gKyh5IIFgisA6RyRACC+KBlKjgAiBU2KNgMJz6mtRqEcWAl4BWouYeY/L7OoAABCAAYAABAAAIQADAAAAAAAAAAAA==

> <PUBCHEM_CACTVS_TAUTO_COUNT>
12

> <PUBCHEM_CACTVS_TPSA>
87.7

> <PUBCHEM_COMPONENT_COUNT>
1

> <PUBCHEM_COMPOUND_CANONICALIZED>
1

> <PUBCHEM_COMPOUND_CID>
5310837

> <PUBCHEM_COORDINATE_TYPE>
1
5
255

> <PUBCHEM_EXACT_MASS>
273.045964

> <PUBCHEM_HEAVY_ATOM_COUNT>
19

> <PUBCHEM_ISOTOPIC_ATOM_COUNT>
0

> <PUBCHEM_IUPAC_CAS_NAME>
7-hydroxy-5-methyl-3-(4-methyl-2-thiazolyl)-1-benzopyran-4-one

> <PUBCHEM_IUPAC_INCHI>
InChI=1S/C14H11NO3S/c1-7-3-9(16)4-11-12(7)13(17)10(5-18-11)14-15-8(2)6-19-14/h3-6,16H,1-2H3

> <PUBCHEM_IUPAC_INCHIKEY>
NQLIVLASGOOYQX-UHFFFAOYSA-N

> <PUBCHEM_IUPAC_NAME>
7-hydroxy-5-methyl-3-(4-methyl-1,3-thiazol-2-yl)chromen-4-one

> <PUBCHEM_IUPAC_OPENEYE_NAME>
7-hydroxy-5-methyl-3-(4-methylthiazol-2-yl)chromen-4-one

> <PUBCHEM_IUPAC_SYSTEMATIC_NAME>
5-methyl-3-(4-methyl-1,3-thiazol-2-yl)-7-oxidanyl-chromen-4-one

> <PUBCHEM_IUPAC_TRADITIONAL_NAME>
7-hydroxy-5-methyl-3-(4-methylthiazol-2-yl)chromone

> <PUBCHEM_MOLECULAR_FORMULA>
C14H11NO3S

> <PUBCHEM_MOLECULAR_WEIGHT>
273.30704

> <PUBCHEM_MONOISOTOPIC_WEIGHT>
273.045964

> <PUBCHEM_OPENEYE_CAN_SMILES>
CC1=CC(=CC2=C1C(=O)C(=CO2)C3=NC(=CS3)C)O

> <PUBCHEM_OPENEYE_ISO_SMILES>
CC1=CC(=CC2=C1C(=O)C(=CO2)C3=NC(=CS3)C)O

> <PUBCHEM_TOTAL_CHARGE>
0

> <PUBCHEM_XLOGP3_AA>
2.7

$$$$
Written by BCL::WriteToMDL,5091486
MBcorina  10171218483D 1   1.00000     0.00000 
CORINA 3.49 0026  01.06.2011
 31 34  0  0  0  0  0  0  0  0999 V2000
   -0.0218    1.7527    0.0117 S   0  0  0  1  0  2  0  0  0  0  0  0
    2.0577   -6.0257   -0.0470 O   0  0  0  1  0  2  0  0  0  0  0  0
   -2.2228   -0.5030    0.0213 O   0  0  0  1  0  1  0  0  0  0  0  0
   -0.8841   -2.2556   -0.0006 N   0  0  0  1  0  3  0  0  0  0  0  0
    1.2944   -0.4731   -0.0128 C   0  0  0  1  0  3  0  0  0  0  0  0
    1.5033   -1.9414   -0.0227 C   0  0  0  1  0  3  0  0  0  0  0  0
    2.2986    0.5943   -0.0167 C   0  0  0  1  0  3  0  0  0  0  0  0
    0.0021   -0.0041    0.0020 C   0  0  0  1  0  3  0  0  0  0  0  0
    0.3892   -2.7929   -0.0156 C   0  0  0  1  0  3  0  0  0  0  0  0
    1.7308    1.8652   -0.0045 C   0  0  0  1  0  3  0  0  0  0  0  0
   -1.0814   -0.9300    0.0081 C   0  0  0  1  0  3  0  0  0  0  0  0
    2.7939   -2.4723   -0.0373 C   0  0  0  1  0  3  0  0  0  0  0  0
    0.5814   -4.1691   -0.0242 C   0  0  0  1  0  3  0  0  0  0  0  0
    3.7048    0.4712   -0.0308 C   0  0  0  1  0  3  0  0  0  0  0  0
    2.5614    2.9945   -0.0059 C   0  0  0  1  0  3  0  0  0  0  0  0
    1.8677   -4.6806   -0.0390 C   0  0  0  1  0  3  0  0  0  0  0  0
    2.9684   -3.8279   -0.0456 C   0  0  0  1  0  3  0  0  0  0  0  0
    4.4940    1.5804   -0.0316 C   0  0  0  1  0  3  0  0  0  0  0  0
    3.9276    2.8478   -0.0193 C   0  0  0  1  0  3  0  0  0  0  0  0
    3.4091   -6.4900   -0.0621 C   0  0  0  1  0  4  0  0  0  0  0  0
   -1.6505   -2.8501    0.0034 H   0  0  0  1  0  1  0  0  0  0  0  0
    3.6509   -1.8151   -0.0423 H   0  0  0  1  0  1  0  0  0  0  0  0
   -0.2681   -4.8360   -0.0191 H   0  0  0  1  0  1  0  0  0  0  0  0
    4.1575   -0.5093   -0.0401 H   0  0  0  1  0  1  0  0  0  0  0  0
    2.1262    3.9829    0.0033 H   0  0  0  1  0  1  0  0  0  0  0  0
    3.9665   -4.2403   -0.0573 H   0  0  0  1  0  1  0  0  0  0  0  0
    5.5687    1.4737   -0.0424 H   0  0  0  1  0  1  0  0  0  0  0  0
    4.5627    3.7212   -0.0207 H   0  0  0  1  0  1  0  0  0  0  0  0
    3.4187   -7.5799   -0.0672 H   0  0  0  1  0  1  0  0  0  0  0  0
    3.9110   -6.1180   -0.9553 H   0  0  0  1  0  1  0  0  0  0  0  0
    3.9282   -6.1262    0.8246 H   0  0  0  1  0  1  0  0  0  0  0  0
  1  8  1  0  0  0  0
  1 10  1  0  0  0  0
  2 16  1  0  0  0  0
  2 20  1  0  0  0  0
  3 11  2  0  0  0  0
  4  9  1  0  0  0  0
  4 11  1  0  0  0  0
  4 21  1  0  0  0  0
  5  6  1  0  0  0  0
  5  7  1  0  0  0  0
  5  8  2  0  0  0  0
  6  9  2  0  0  0  0
  6 12  1  0  0  0  0
  7 10  1  0  0  0  0
  7 14  2  0  0  0  0
  8 11  1  0  0  0  0
  9 13  1  0  0  0  0
 10 15  2  0  0  0  0
 12 17  2  0  0  0  0
 12 22  1  0  0  0  0
 13 16  2  0  0  0  0
 13 23  1  0  0  0  0
 14 18  1  0  0  0  0
 14 24  1  0  0  0  0
 15 19  1  0  0  0  0
 15 25  1  0  0  0  0
 16 17  1  0  0  0  0
 17 26  1  0  0  0  0
 18 19  2  0  0  0  0
 18 27  1  0  0  0  0
 19 28  1  0  0  0  0
 20 29  1  0  0  0  0
 20 30  1  0  0  0  0
 20 31  1  0  0  0  0
M  END
> <Activity>
2.494

> <Mapped(file=504701.csv.activities,property=Cached(PUBCHEM_COMPOUND_CID))>
2.494

> <PUBCHEM_ATOM_DEF_STEREO_COUNT>
0

> <PUBCHEM_ATOM_UDEF_STEREO_COUNT>
0

> <PUBCHEM_BONDANNOTATIONS>
1  10  8
1  8  8
10  15  8
12  17  8
13  16  8
14  18  8
15  19  8
16  17  8
18  19  8
4  11  8
4  9  8
5  6  8
5  7  8
5  8  8
6  12  8
6  9  8
7  10  8
7  14  8
8  11  8
9  13  8

> <PUBCHEM_BOND_DEF_STEREO_COUNT>
0

> <PUBCHEM_BOND_UDEF_STEREO_COUNT>
0

> <PUBCHEM_CACTVS_COMPLEXITY>
402

> <PUBCHEM_CACTVS_HBOND_ACCEPTOR>
3

> <PUBCHEM_CACTVS_HBOND_DONOR>
1

> <PUBCHEM_CACTVS_ROTATABLE_BOND>
1

> <PUBCHEM_CACTVS_SUBSKEYS>
AAADccB6MABAAAAAAAAAAAAAAAAAASAAAAA8YIAAAAAAAFix9AAAHgQQAAAADAyB2AIyx8LABAiMAiVSUACDCIAlKhBIiBkGbMgMJjLktZuEMShm1Bno6QeY2fOeoAAAAgAGAABAAAAEAAwAAAAAAAAAAA==

> <PUBCHEM_CACTVS_TAUTO_COUNT>
2

> <PUBCHEM_CACTVS_TPSA>
66.6

> <PUBCHEM_COMPONENT_COUNT>
1

> <PUBCHEM_COMPOUND_CANONICALIZED>
1

> <PUBCHEM_COMPOUND_CID>
5091486

> <PUBCHEM_COORDINATE_TYPE>
1
5
255

> <PUBCHEM_EXACT_MASS>
281.05105

> <PUBCHEM_HEAVY_ATOM_COUNT>
20

> <PUBCHEM_ISOTOPIC_ATOM_COUNT>
0

> <PUBCHEM_IUPAC_CAS_NAME>
3-methoxy-5H-[1]benzothiolo[2,3-c]quinolin-6-one

> <PUBCHEM_IUPAC_INCHI>
InChI=1S/C16H11NO2S/c1-19-9-6-7-10-12(8-9)17-16(18)15-14(10)11-4-2-3-5-13(11)20-15/h2-8H,1H3,(H,17,18)

> <PUBCHEM_IUPAC_INCHIKEY>
GPCQYADOLCARPD-UHFFFAOYSA-N

> <PUBCHEM_IUPAC_NAME>
3-methoxy-5H-[1]benzothiolo[2,3-c]quinolin-6-one

> <PUBCHEM_IUPAC_OPENEYE_NAME>
3-methoxy-5H-benzothiopheno[2,3-c]quinolin-6-one

> <PUBCHEM_IUPAC_SYSTEMATIC_NAME>
3-methoxy-5H-[1]benzothiolo[2,3-c]quinolin-6-one

> <PUBCHEM_IUPAC_TRADITIONAL_NAME>
3-methoxy-5H-benzothiopheno[2,3-c]quinolin-6-one

> <PUBCHEM_MOLECULAR_FORMULA>
C16H11NO2S

> <PUBCHEM_MOLECULAR_WEIGHT>
281.32904

> <PUBCHEM_MONOISOTOPIC_WEIGHT>
281.05105

> <PUBCHEM_OPENEYE_CAN_SMILES>
COC1=CC2=C(C=C1)C3=C(C(=O)N2)SC4=CC=CC=C43

> <PUBCHEM_OPENEYE_ISO_SMILES>
COC1=CC2=C(C=C1)C3=C(C(=O)N2)SC4=CC=CC=C43

> <PUBCHEM_TOTAL_CHARGE>
0

> <PUBCHEM_XLOGP3_AA>
3.8

$$$$
Written by BCL::WriteToMDL,2555366
MBcorina  10171218483D 1   1.00000     0.00000 
CORINA 3.49 0026  01.06.2011
 34 37  0  0  0  0  0  0  0  0999 V2000
   -0.0218    1.7542    0.0117 S   0  0  0  1  0  2  0  0  0  0  0  0
   -7.7053    1.2424    0.0896 S   0  0  0  1  0  2  0  0  0  0  0  0
   -2.4682   -0.4336    0.0247 O   0  0  0  1  0  2  0  0  0  0  0  0
   -5.4121   -2.4702    0.0459 O   0  0  0  1  0  1  0  0  0  0  0  0
    1.2209   -0.4349   -0.0119 N   0  0  0  1  0  2  0  0  0  0  0  0
   -5.3928   -0.2481    0.0569 N   0  0  0  1  0  3  0  0  0  0  0  0
   -7.5628   -1.2290    0.0760 N   0  0  0  1  0  2  0  0  0  0  0  0
   -1.1935   -0.8618    0.0093 C   0  0  0  1  0  3  0  0  0  0  0  0
    0.0021   -0.0041    0.0020 C   0  0  0  1  0  3  0  0  0  0  0  0
    1.7396    1.7885   -0.0049 C   0  0  0  1  0  3  0  0  0  0  0  0
    2.2070    0.4675   -0.0165 C   0  0  0  1  0  3  0  0  0  0  0  0
   -3.2983   -1.4959    0.0278 C   0  0  0  1  0  3  0  0  0  0  0  0
   -1.1965   -2.2388    0.0022 C   0  0  0  1  0  3  0  0  0  0  0  0
   -2.5353   -2.6427    0.0140 C   0  0  0  1  0  3  0  0  0  0  0  0
    2.6392    2.8527   -0.0078 C   0  0  0  1  0  3  0  0  0  0  0  0
    3.6037    0.2516   -0.0303 C   0  0  0  1  0  3  0  0  0  0  0  0
   -4.7639   -1.4401    0.0441 C   0  0  0  1  0  3  0  0  0  0  0  0
    3.9944    2.6098   -0.0225 C   0  0  0  1  0  3  0  0  0  0  0  0
    4.4660    1.3044   -0.0317 C   0  0  0  1  0  3  0  0  0  0  0  0
   -6.7802   -0.1953    0.0723 C   0  0  0  1  0  3  0  0  0  0  0  0
   -9.1924    0.2978    0.1017 C   0  0  0  1  0  3  0  0  0  0  0  0
   -8.8617   -0.9949    0.0917 C   0  0  0  1  0  3  0  0  0  0  0  0
  -10.5933    0.8529    0.1205 C   0  0  0  1  0  4  0  0  0  0  0  0
   -0.3302   -2.8837   -0.0104 H   0  0  0  1  0  1  0  0  0  0  0  0
   -2.9009   -3.6590    0.0129 H   0  0  0  1  0  1  0  0  0  0  0  0
    2.2732    3.8688    0.0011 H   0  0  0  1  0  1  0  0  0  0  0  0
    3.9898   -0.7569   -0.0393 H   0  0  0  1  0  1  0  0  0  0  0  0
    4.6907    3.4353   -0.0255 H   0  0  0  1  0  1  0  0  0  0  0  0
    5.5304    1.1220   -0.0419 H   0  0  0  1  0  1  0  0  0  0  0  0
   -4.8762    0.5728    0.0555 H   0  0  0  1  0  1  0  0  0  0  0  0
   -9.5973   -1.7856    0.0957 H   0  0  0  1  0  1  0  0  0  0  0  0
  -10.5525    1.9421    0.1252 H   0  0  0  1  0  1  0  0  0  0  0  0
  -11.1306    0.5133   -0.7650 H   0  0  0  1  0  1  0  0  0  0  0  0
  -11.1101    0.5048    1.0148 H   0  0  0  1  0  1  0  0  0  0  0  0
  1  9  1  0  0  0  0
  1 10  1  0  0  0  0
  2 20  1  0  0  0  0
  2 21  1  0  0  0  0
  3  8  1  0  0  0  0
  3 12  1  0  0  0  0
  4 17  2  0  0  0  0
  5  9  2  0  0  0  0
  5 11  1  0  0  0  0
  6 17  1  0  0  0  0
  6 20  1  0  0  0  0
  6 30  1  0  0  0  0
  7 20  2  0  0  0  0
  7 22  1  0  0  0  0
  8  9  1  0  0  0  0
  8 13  2  0  0  0  0
 10 11  1  0  0  0  0
 10 15  2  0  0  0  0
 11 16  2  0  0  0  0
 12 14  2  0  0  0  0
 12 17  1  0  0  0  0
 13 14  1  0  0  0  0
 13 24  1  0  0  0  0
 14 25  1  0  0  0  0
 15 18  1  0  0  0  0
 15 26  1  0  0  0  0
 16 19  1  0  0  0  0
 16 27  1  0  0  0  0
 18 19  2  0  0  0  0
 18 28  1  0  0  0  0
 19 29  1  0  0  0  0
 21 22  2  0  0  0  0
 21 23  1  0  0  0  0
 22 31  1  0  0  0  0
 23 32  1  0  0  0  0
 23 33  1  0  0  0  0
 23 34  1  0  0  0  0
M  END
> <Activity>
0.33348

> <Mapped(file=504701.csv.activities,property=Cached(PUBCHEM_COMPOUND_CID))>
0.33348

> <PUBCHEM_ATOM_DEF_STEREO_COUNT>
0

> <PUBCHEM_ATOM_UDEF_STEREO_COUNT>
0

> <PUBCHEM_BONDANNOTATIONS>
1  10  8
1  9  8
10  11  8
10  15  8
11  16  8
12  14  8
13  14  8
15  18  8
16  19  8
18  19  8
2  20  8
2  21  8
21  22  8
3  12  8
3  8  8
5  11  8
5  9  8
7  20  8
7  22  8
8  13  8

> <PUBCHEM_BOND_DEF_STEREO_COUNT>
0

> <PUBCHEM_BOND_UDEF_STEREO_COUNT>
0

> <PUBCHEM_CACTVS_COMPLEXITY>
453

> <PUBCHEM_CACTVS_HBOND_ACCEPTOR>
4

> <PUBCHEM_CACTVS_HBOND_DONOR>
1

> <PUBCHEM_CACTVS_ROTATABLE_BOND>
3

> <PUBCHEM_CACTVS_SUBSKEYS>
AAADccB7MABgAAAAAAAAAAAAAAAAAWLEgAAwAAAAAAAAAFgB/gAAHgQQAAAACAzB1gQ/1bLIFEisAbV3dAaD+Kl3KjlJ2D3+bNiOJrLkvb+HOSjswRP46aeYHwJgAAAAAAAAAQAAAAAAAAACAAAAAAAAAA==

> <PUBCHEM_CACTVS_TAUTO_COUNT>
3

> <PUBCHEM_CACTVS_TPSA>
125

> <PUBCHEM_COMPONENT_COUNT>
1

> <PUBCHEM_COMPOUND_CANONICALIZED>
1

> <PUBCHEM_COMPOUND_CID>
2555366

> <PUBCHEM_COORDINATE_TYPE>
1
5
255

> <PUBCHEM_EXACT_MASS>
341.029269

> <PUBCHEM_HEAVY_ATOM_COUNT>
23

> <PUBCHEM_ISOTOPIC_ATOM_COUNT>
0

> <PUBCHEM_IUPAC_CAS_NAME>
5-(1,3-benzothiazol-2-yl)-N-(5-methyl-2-thiazolyl)-2-furancarboxamide

> <PUBCHEM_IUPAC_INCHI>
InChI=1S/C16H11N3O2S2/c1-9-8-17-16(22-9)19-14(20)11-6-7-12(21-11)15-18-10-4-2-3-5-13(10)23-15/h2-8H,1H3,(H,17,19,20)

> <PUBCHEM_IUPAC_INCHIKEY>
OZZZSNYSAXZKLG-UHFFFAOYSA-N

> <PUBCHEM_IUPAC_NAME>
5-(1,3-benzothiazol-2-yl)-N-(5-methyl-1,3-thiazol-2-yl)furan-2-carboxamide

> <PUBCHEM_IUPAC_OPENEYE_NAME>
5-(1,3-benzothiazol-2-yl)-N-(5-methylthiazol-2-yl)furan-2-carboxamide

> <PUBCHEM_IUPAC_SYSTEMATIC_NAME>
5-(1,3-benzothiazol-2-yl)-N-(5-methyl-1,3-thiazol-2-yl)furan-2-carboxamide

> <PUBCHEM_IUPAC_TRADITIONAL_NAME>
5-(1,3-benzothiazol-2-yl)-N-(5-methylthiazol-2-yl)-2-furamide

> <PUBCHEM_MOLECULAR_FORMULA>
C16H11N3O2S2

> <PUBCHEM_MOLECULAR_WEIGHT>
341.40744

> <PUBCHEM_MONOISOTOPIC_WEIGHT>
341.029269

> <PUBCHEM_OPENEYE_CAN_SMILES>
CC1=CN=C(S1)NC(=O)C2=CC=C(O2)C3=NC4=CC=CC=C4S3

> <PUBCHEM_OPENEYE_ISO_SMILES>
CC1=CN=C(S1)NC(=O)C2=CC=C(O2)C3=NC4=CC=CC=C4S3

> <PUBCHEM_TOTAL_CHARGE>
0

> <PUBCHEM_XLOGP3_AA>
4.1

$$$$
Written by BCL::WriteToMDL,24746898
MBcorina  10171218483D 1   1.00000     0.00000 
CORINA 3.49 0026  01.06.2011
 43 45  0  0  0  0  0  0  0  0999 V2000
    0.2663    1.1486    1.3483 O   0  0  0  1  0  2  0  0  0  0  0  0
   -2.0370   -0.0421    0.4239 O   0  0  0  1  0  2  0  0  0  0  0  0
    5.1125   -4.2015   -0.2561 O   0  0  0  1  0  1  0  0  0  0  0  0
    1.8055   -4.6784    0.5056 O   0  0  0  1  0  1  0  0  0  0  0  0
    4.1318   -6.1502    0.1524 N   0  0  0  1  0  3  0  0  0  0  0  0
    2.7862   -2.7296    0.0970 N   0  0  0  1  0  3  0  0  0  0  0  0
    4.2541   -8.8687   -0.5265 N   0  0  0  1  0  2  0  0  0  0  0  0
    5.3793   -8.1982   -0.2663 C   0  0  0  1  0  3  0  0  0  0  0  0
    5.3479   -6.8286    0.0787 C   0  0  0  1  0  3  0  0  0  0  0  0
    6.6283   -8.8618   -0.3341 C   0  0  0  1  0  3  0  0  0  0  0  0
    6.5286   -6.1681    0.3412 C   0  0  0  1  0  3  0  0  0  0  0  0
    1.5677   -2.0483    0.1809 C   0  0  0  1  0  3  0  0  0  0  0  0
    7.8095   -8.1534   -0.0594 C   0  0  0  1  0  3  0  0  0  0  0  0
    7.7490   -6.8334    0.2702 C   0  0  0  1  0  3  0  0  0  0  0  0
    6.6573  -10.2268   -0.6780 C   0  0  0  1  0  3  0  0  0  0  0  0
    1.5214   -0.7732    0.7294 C   0  0  0  1  0  3  0  0  0  0  0  0
    0.3142   -0.0998    0.8112 C   0  0  0  1  0  3  0  0  0  0  0  0
   -0.8501   -0.7022    0.3437 C   0  0  0  1  0  3  0  0  0  0  0  0
    0.4046   -2.6446   -0.2896 C   0  0  0  1  0  3  0  0  0  0  0  0
   -0.8006   -1.9747   -0.2030 C   0  0  0  1  0  3  0  0  0  0  0  0
    4.0995   -4.8090    0.0239 C   0  0  0  1  0  3  0  0  0  0  0  0
    2.8186   -4.0709    0.2256 C   0  0  0  1  0  3  0  0  0  0  0  0
    5.4703  -10.8528   -0.9323 C   0  0  0  1  0  3  0  0  0  0  0  0
    4.2765  -10.1397   -0.8476 C   0  0  0  1  0  3  0  0  0  0  0  0
    1.4996    1.7048    1.8083 C   0  0  0  1  0  4  0  0  0  0  0  0
   -3.1916   -0.7203   -0.0751 C   0  0  0  1  0  4  0  0  0  0  0  0
    6.5066   -5.1211    0.6051 H   0  0  0  1  0  1  0  0  0  0  0  0
    8.7648   -8.6548   -0.1099 H   0  0  0  1  0  1  0  0  0  0  0  0
    3.3092   -6.6436    0.2963 H   0  0  0  1  0  1  0  0  0  0  0  0
    8.6615   -6.2950    0.4798 H   0  0  0  1  0  1  0  0  0  0  0  0
    7.5922  -10.7640   -0.7394 H   0  0  0  1  0  1  0  0  0  0  0  0
    2.4259   -0.3075    1.0920 H   0  0  0  1  0  1  0  0  0  0  0  0
    0.4419   -3.6345   -0.7198 H   0  0  0  1  0  1  0  0  0  0  0  0
    3.6080   -2.2369   -0.0537 H   0  0  0  1  0  1  0  0  0  0  0  0
   -1.7045   -2.4415   -0.5656 H   0  0  0  1  0  1  0  0  0  0  0  0
    5.4572  -11.8992   -1.1991 H   0  0  0  1  0  1  0  0  0  0  0  0
    3.3451  -10.6474   -1.0506 H   0  0  0  1  0  1  0  0  0  0  0  0
    1.9179    1.0669    2.5869 H   0  0  0  1  0  1  0  0  0  0  0  0
    2.2011    1.7705    0.9766 H   0  0  0  1  0  1  0  0  0  0  0  0
    1.3206    2.7013    2.2121 H   0  0  0  1  0  1  0  0  0  0  0  0
   -3.0523   -0.9451   -1.1325 H   0  0  0  1  0  1  0  0  0  0  0  0
   -3.3349   -1.6487    0.4779 H   0  0  0  1  0  1  0  0  0  0  0  0
   -4.0682   -0.0846    0.0489 H   0  0  0  1  0  1  0  0  0  0  0  0
  1 17  1  0  0  0  0
  1 25  1  0  0  0  0
  2 18  1  0  0  0  0
  2 26  1  0  0  0  0
  3 21  2  0  0  0  0
  4 22  2  0  0  0  0
  5  9  1  0  0  0  0
  5 21  1  0  0  0  0
  5 29  1  0  0  0  0
  6 12  1  0  0  0  0
  6 22  1  0  0  0  0
  6 34  1  0  0  0  0
  7  8  1  0  0  0  0
  7 24  2  0  0  0  0
  8  9  1  0  0  0  0
  8 10  2  0  0  0  0
  9 11  2  0  0  0  0
 10 13  1  0  0  0  0
 10 15  1  0  0  0  0
 11 14  1  0  0  0  0
 11 27  1  0  0  0  0
 12 16  2  0  0  0  0
 12 19  1  0  0  0  0
 13 14  2  0  0  0  0
 13 28  1  0  0  0  0
 14 30  1  0  0  0  0
 15 23  2  0  0  0  0
 15 31  1  0  0  0  0
 16 17  1  0  0  0  0
 16 32  1  0  0  0  0
 17 18  2  0  0  0  0
 18 20  1  0  0  0  0
 19 20  2  0  0  0  0
 19 33  1  0  0  0  0
 20 35  1  0  0  0  0
 21 22  1  0  0  0  0
 23 24  1  0  0  0  0
 23 36  1  0  0  0  0
 24 37  1  0  0  0  0
 25 38  1  0  0  0  0
 25 39  1  0  0  0  0
 25 40  1  0  0  0  0
 26 41  1  0  0  0  0
 26 42  1  0  0  0  0
 26 43  1  0  0  0  0
M  END
> <Activity>
0.47496

> <Mapped(file=504701.csv.activities,property=Cached(PUBCHEM_COMPOUND_CID))>
0.47496

> <PUBCHEM_ATOM_DEF_STEREO_COUNT>
0

> <PUBCHEM_ATOM_UDEF_STEREO_COUNT>
0

> <PUBCHEM_BONDANNOTATIONS>
10  13  8
10  15  8
11  14  8
12  16  8
12  19  8
13  14  8
15  23  8
16  17  8
17  18  8
18  20  8
19  20  8
23  24  8
7  24  8
7  8  8
8  10  8
8  9  8
9  11  8

> <PUBCHEM_BOND_DEF_STEREO_COUNT>
0

> <PUBCHEM_BOND_UDEF_STEREO_COUNT>
0

> <PUBCHEM_CACTVS_COMPLEXITY>
501

> <PUBCHEM_CACTVS_HBOND_ACCEPTOR>
5

> <PUBCHEM_CACTVS_HBOND_DONOR>
2

> <PUBCHEM_CACTVS_ROTATABLE_BOND>
4

> <PUBCHEM_CACTVS_SUBSKEYS>
AAADceB7OAAAAAAAAAAAAAAAAAAAAAAAAAA8YIAAAAAAAACx9AAAHgAQAAAADAzBngY+xvLIFACoAzV3VACCiCAxMiAI2CC+/JgNZuLEsbuUMCpm1BnK6Aew0IMOAEAAQgACQCAAgACEAASAQAAAAAAAAA==

> <PUBCHEM_CACTVS_TAUTO_COUNT>
4

> <PUBCHEM_CACTVS_TPSA>
89.6

> <PUBCHEM_COMPONENT_COUNT>
1

> <PUBCHEM_COMPOUND_CANONICALIZED>
1

> <PUBCHEM_COMPOUND_CID>
24746898

> <PUBCHEM_COORDINATE_TYPE>
1
5
255

> <PUBCHEM_EXACT_MASS>
351.121906

> <PUBCHEM_HEAVY_ATOM_COUNT>
26

> <PUBCHEM_ISOTOPIC_ATOM_COUNT>
0

> <PUBCHEM_IUPAC_CAS_NAME>
N-(3,4-dimethoxyphenyl)-N'-(8-quinolinyl)oxamide

> <PUBCHEM_IUPAC_INCHI>
InChI=1S/C19H17N3O4/c1-25-15-9-8-13(11-16(15)26-2)21-18(23)19(24)22-14-7-3-5-12-6-4-10-20-17(12)14/h3-11H,1-2H3,(H,21,23)(H,22,24)

> <PUBCHEM_IUPAC_INCHIKEY>
DTDXWNKBRPNJAO-UHFFFAOYSA-N

> <PUBCHEM_IUPAC_NAME>
N-(3,4-dimethoxyphenyl)-N'-quinolin-8-yloxamide

> <PUBCHEM_IUPAC_OPENEYE_NAME>
N-(3,4-dimethoxyphenyl)-N'-(8-quinolyl)oxamide

> <PUBCHEM_IUPAC_SYSTEMATIC_NAME>
N-(3,4-dimethoxyphenyl)-N'-quinolin-8-yl-ethanediamide

> <PUBCHEM_IUPAC_TRADITIONAL_NAME>
N-(3,4-dimethoxyphenyl)-N'-(8-quinolyl)oxamide

> <PUBCHEM_MOLECULAR_FORMULA>
C19H17N3O4

> <PUBCHEM_MOLECULAR_WEIGHT>
351.35598

> <PUBCHEM_MONOISOTOPIC_WEIGHT>
351.121906

> <PUBCHEM_OPENEYE_CAN_SMILES>
COC1=C(C=C(C=C1)NC(=O)C(=O)NC2=CC=CC3=C2N=CC=C3)OC

> <PUBCHEM_OPENEYE_ISO_SMILES>
COC1=C(C=C(C=C1)NC(=O)C(=O)NC2=CC=CC3=C2N=CC=C3)OC

> <PUBCHEM_TOTAL_CHARGE>
0

> <PUBCHEM_XLOGP3_AA>
2.6

$$$$
Written by BCL::WriteToMDL,4877213
MBcorina  10171218483D 1   1.00000     0.00000 
CORINA 3.49 0026  01.06.2011
 47 50  0  0  0  0  0  0  0  0999 V2000
    0.2626    0.9996   -1.2652 O   0  0  0  1  0  2  0  0  0  0  0  0
   -2.1520    0.0527   -1.0046 O   0  0  0  1  0  1  0  0  0  0  0  0
   -6.8189   -3.7895   -0.0910 N   0  0  0  1  0  3  0  0  0  0  0  0
   -5.2045   -5.2486   -0.2667 N   0  0  0  1  0  2  0  0  0  0  0  0
   -1.6400   -1.8540    0.0078 N   0  0  0  1  0  3  0  0  0  0  0  0
   -0.3326    4.0842   -2.8828 N   0  0  0  1  0  1  0  0  0  0  0  0
   -5.6314   -3.0802   -0.0423 C   0  0  0  1  0  3  0  0  0  0  0  0
   -4.6062   -4.0341   -0.1566 C   0  0  0  1  0  3  0  0  0  0  0  0
   -6.4973   -5.1062   -0.2284 C   0  0  0  1  0  3  0  0  0  0  0  0
   -8.1109   -3.2538   -0.0083 C   0  0  0  1  0  3  0  0  0  0  0  0
   -5.3176   -1.7342    0.0862 C   0  0  0  1  0  3  0  0  0  0  0  0
   -3.2727   -3.6176   -0.1392 C   0  0  0  1  0  3  0  0  0  0  0  0
   -2.9764   -2.2740   -0.0099 C   0  0  0  1  0  3  0  0  0  0  0  0
   -3.9995   -1.3343    0.1016 C   0  0  0  1  0  3  0  0  0  0  0  0
   -7.4933   -6.2332   -0.3219 C   0  0  0  1  0  4  0  0  0  0  0  0
   -8.9714   -3.3418   -1.0945 C   0  0  0  1  0  3  0  0  0  0  0  0
   -8.5355   -2.6390    1.1620 C   0  0  0  1  0  3  0  0  0  0  0  0
  -10.2444   -2.8127   -1.0098 C   0  0  0  1  0  3  0  0  0  0  0  0
   -9.8097   -2.1118    1.2405 C   0  0  0  1  0  3  0  0  0  0  0  0
   -1.2952   -0.6793   -0.5560 C   0  0  0  1  0  3  0  0  0  0  0  0
  -10.6623   -2.1959    0.1551 C   0  0  0  1  0  3  0  0  0  0  0  0
    0.1548   -0.2754   -0.6291 C   0  0  0  1  0  4  0  0  0  0  0  0
    1.5109    1.5116   -1.4113 C   0  0  0  1  0  3  0  0  0  0  0  0
    1.6930    2.7583   -2.0264 C   0  0  0  1  0  3  0  0  0  0  0  0
    2.6109    0.8070   -0.9481 C   0  0  0  1  0  3  0  0  0  0  0  0
    2.9827    3.2747   -2.1711 C   0  0  0  1  0  3  0  0  0  0  0  0
    3.8811    1.3293   -1.0975 C   0  0  0  1  0  3  0  0  0  0  0  0
    4.0660    2.5576   -1.7095 C   0  0  0  1  0  3  0  0  0  0  0  0
    0.5635    3.4976   -2.5039 C   0  0  0  1  0  2  0  0  0  0  0  0
   -6.1060   -1.0013    0.1737 H   0  0  0  1  0  1  0  0  0  0  0  0
   -2.4769   -4.3425   -0.2261 H   0  0  0  1  0  1  0  0  0  0  0  0
   -3.7575   -0.2865    0.2017 H   0  0  0  1  0  1  0  0  0  0  0  0
   -7.7529   -6.4030   -1.3668 H   0  0  0  1  0  1  0  0  0  0  0  0
   -7.0561   -7.1401    0.0958 H   0  0  0  1  0  1  0  0  0  0  0  0
   -8.3914   -5.9718    0.2377 H   0  0  0  1  0  1  0  0  0  0  0  0
   -8.6454   -3.8231   -2.0047 H   0  0  0  1  0  1  0  0  0  0  0  0
   -7.8702   -2.5733    2.0102 H   0  0  0  1  0  1  0  0  0  0  0  0
   -0.9628   -2.4086    0.4258 H   0  0  0  1  0  1  0  0  0  0  0  0
  -10.9140   -2.8805   -1.8545 H   0  0  0  1  0  1  0  0  0  0  0  0
  -10.1405   -1.6334    2.1505 H   0  0  0  1  0  1  0  0  0  0  0  0
  -11.6581   -1.7827    0.2187 H   0  0  0  1  0  1  0  0  0  0  0  0
    0.7099   -1.0165   -1.2042 H   0  0  0  1  0  1  0  0  0  0  0  0
    0.5662   -0.2148    0.3785 H   0  0  0  1  0  1  0  0  0  0  0  0
    2.4748   -0.1515   -0.4694 H   0  0  0  1  0  1  0  0  0  0  0  0
    3.1311    4.2342   -2.6441 H   0  0  0  1  0  1  0  0  0  0  0  0
    4.7350    0.7763   -0.7349 H   0  0  0  1  0  1  0  0  0  0  0  0
    5.0628    2.9577   -1.8218 H   0  0  0  1  0  1  0  0  0  0  0  0
  1 22  1  0  0  0  0
  1 23  1  0  0  0  0
  2 20  2  0  0  0  0
  3  7  1  0  0  0  0
  3  9  1  0  0  0  0
  3 10  1  0  0  0  0
  4  8  1  0  0  0  0
  4  9  2  0  0  0  0
  5 13  1  0  0  0  0
  5 20  1  0  0  0  0
  5 38  1  0  0  0  0
  6 29  3  0  0  0  0
  7  8  2  0  0  0  0
  7 11  1  0  0  0  0
  8 12  1  0  0  0  0
  9 15  1  0  0  0  0
 10 16  2  0  0  0  0
 10 17  1  0  0  0  0
 11 14  2  0  0  0  0
 11 30  1  0  0  0  0
 12 13  2  0  0  0  0
 12 31  1  0  0  0  0
 13 14  1  0  0  0  0
 14 32  1  0  0  0  0
 15 33  1  0  0  0  0
 15 34  1  0  0  0  0
 15 35  1  0  0  0  0
 16 18  1  0  0  0  0
 16 36  1  0  0  0  0
 17 19  2  0  0  0  0
 17 37  1  0  0  0  0
 18 21  2  0  0  0  0
 18 39  1  0  0  0  0
 19 21  1  0  0  0  0
 19 40  1  0  0  0  0
 20 22  1  0  0  0  0
 21 41  1  0  0  0  0
 22 42  1  0  0  0  0
 22 43  1  0  0  0  0
 23 24  1  0  0  0  0
 23 25  2  0  0  0  0
 24 26  2  0  0  0  0
 24 29  1  0  0  0  0
 25 27  1  0  0  0  0
 25 44  1  0  0  0  0
 26 28  1  0  0  0  0
 26 45  1  0  0  0  0
 27 28  2  0  0  0  0
 27 46  1  0  0  0  0
 28 47  1  0  0  0  0
M  END
> <Activity>
1.608

> <Mapped(file=504701.csv.activities,property=Cached(PUBCHEM_COMPOUND_CID))>
1.608

> <PUBCHEM_ATOM_DEF_STEREO_COUNT>
0

> <PUBCHEM_ATOM_UDEF_STEREO_COUNT>
0

> <PUBCHEM_BONDANNOTATIONS>
10  16  8
10  17  8
11  14  8
12  13  8
13  14  8
16  18  8
17  19  8
18  21  8
19  21  8
23  24  8
23  25  8
24  26  8
25  27  8
26  28  8
27  28  8
3  7  8
3  9  8
4  8  8
4  9  8
7  11  8
7  8  8
8  12  8

> <PUBCHEM_BOND_DEF_STEREO_COUNT>
0

> <PUBCHEM_BOND_UDEF_STEREO_COUNT>
0

> <PUBCHEM_CACTVS_COMPLEXITY>
611

> <PUBCHEM_CACTVS_HBOND_ACCEPTOR>
3

> <PUBCHEM_CACTVS_HBOND_DONOR>
1

> <PUBCHEM_CACTVS_ROTATABLE_BOND>
5

> <PUBCHEM_CACTVS_SUBSKEYS>
AAADceB7sAAAAAAAAAAAAAAAAAAAAWAAAAAwYMAAAAAAAFgB9AAAHgAQAAAADAyhnwIz1rfMFAC4BydydAKiiC0hMqAJmCB2fJiO7uLE+d+XPCjs1BPY6C+QwCAOAACAAAQIACAAAQAACBAAQAAAAAAAAA==

> <PUBCHEM_CACTVS_TAUTO_COUNT>
3

> <PUBCHEM_CACTVS_TPSA>
79.9

> <PUBCHEM_COMPONENT_COUNT>
1

> <PUBCHEM_COMPOUND_CANONICALIZED>
1

> <PUBCHEM_COMPOUND_CID>
4877213

> <PUBCHEM_COORDINATE_TYPE>
1
5
255

> <PUBCHEM_EXACT_MASS>
382.142976

> <PUBCHEM_HEAVY_ATOM_COUNT>
29

> <PUBCHEM_ISOTOPIC_ATOM_COUNT>
0

> <PUBCHEM_IUPAC_CAS_NAME>
2-(2-cyanophenoxy)-N-(2-methyl-1-phenyl-5-benzimidazolyl)acetamide

> <PUBCHEM_IUPAC_INCHI>
InChI=1S/C23H18N4O2/c1-16-25-20-13-18(11-12-21(20)27(16)19-8-3-2-4-9-19)26-23(28)15-29-22-10-6-5-7-17(22)14-24/h2-13H,15H2,1H3,(H,26,28)

> <PUBCHEM_IUPAC_INCHIKEY>
SXXPISMQCVRFET-UHFFFAOYSA-N

> <PUBCHEM_IUPAC_NAME>
2-(2-cyanophenoxy)-N-(2-methyl-1-phenylbenzimidazol-5-yl)acetamide

> <PUBCHEM_IUPAC_OPENEYE_NAME>
2-(2-cyanophenoxy)-N-(2-methyl-1-phenyl-benzimidazol-5-yl)acetamide

> <PUBCHEM_IUPAC_SYSTEMATIC_NAME>
2-(2-cyanophenoxy)-N-(2-methyl-1-phenyl-benzimidazol-5-yl)ethanamide

> <PUBCHEM_IUPAC_TRADITIONAL_NAME>
2-(2-cyanophenoxy)-N-(2-methyl-1-phenyl-benzimidazol-5-yl)acetamide

> <PUBCHEM_MOLECULAR_FORMULA>
C23H18N4O2

> <PUBCHEM_MOLECULAR_WEIGHT>
382.41462

> <PUBCHEM_MONOISOTOPIC_WEIGHT>
382.142976

> <PUBCHEM_OPENEYE_CAN_SMILES>
CC1=NC2=C(N1C3=CC=CC=C3)C=CC(=C2)NC(=O)COC4=CC=CC=C4C#N

> <PUBCHEM_OPENEYE_ISO_SMILES>
CC1=NC2=C(N1C3=CC=CC=C3)C=CC(=C2)NC(=O)COC4=CC=CC=C4C#N

> <PUBCHEM_TOTAL_CHARGE>
0

> <PUBCHEM_XLOGP3_AA>
4.1

$$$$
Written by BCL::WriteToMDL,1484340
MBcorina  10171218483D 1   1.00000     0.00000 
CORINA 3.49 0026  01.06.2011
 32 34  0  0  0  0  0  0  0  0999 V2000
    4.1008    8.4693    0.0049 Cl  0  0  0  1  0  1  0  0  0  0  0  0
    2.2261    1.8035   -0.0092 O   0  0  0  1  0  1  0  0  0  0  0  0
   -2.2687    1.7352    0.0208 O   0  0  0  1  0  1  0  0  0  0  0  0
   -0.0169    1.3968    0.0097 N   0  0  0  1  0  3  0  0  0  0  0  0
    0.0021   -0.0041    0.0020 N   0  0  0  1  0  3  0  0  0  0  0  0
    0.6233    3.6010    0.0155 C   0  0  0  1  0  3  0  0  0  0  0  0
    1.0738    2.1840    0.0035 C   0  0  0  1  0  3  0  0  0  0  0  0
    1.4817    4.8024    0.0130 C   0  0  0  1  0  3  0  0  0  0  0  0
   -0.7358    3.5711    0.0246 C   0  0  0  1  0  3  0  0  0  0  0  0
   -1.1279    2.1535    0.0186 C   0  0  0  1  0  3  0  0  0  0  0  0
   -0.2903   -0.7129    1.1695 C   0  0  0  1  0  3  0  0  0  0  0  0
    1.4854    5.6649    1.1130 C   0  0  0  1  0  3  0  0  0  0  0  0
    2.2987    5.0792   -1.0871 C   0  0  0  1  0  3  0  0  0  0  0  0
   -0.2719   -2.1019    1.1636 C   0  0  0  1  0  3  0  0  0  0  0  0
   -0.5946   -0.0304    2.3405 C   0  0  0  1  0  3  0  0  0  0  0  0
    2.2891    6.7847    1.1043 C   0  0  0  1  0  3  0  0  0  0  0  0
    3.0977    6.2024   -1.0830 C   0  0  0  1  0  3  0  0  0  0  0  0
    3.0919    7.0565    0.0081 C   0  0  0  1  0  3  0  0  0  0  0  0
   -0.5616   -2.7996    2.3197 C   0  0  0  1  0  3  0  0  0  0  0  0
   -0.8833   -0.7344    3.4930 C   0  0  0  1  0  3  0  0  0  0  0  0
   -0.8697   -2.1171    3.4822 C   0  0  0  1  0  3  0  0  0  0  0  0
   -1.3993    4.4233    0.0348 H   0  0  0  1  0  1  0  0  0  0  0  0
    0.2183   -0.4817   -0.8141 H   0  0  0  1  0  1  0  0  0  0  0  0
    0.8596    5.4545    1.9678 H   0  0  0  1  0  1  0  0  0  0  0  0
    2.3040    4.4142   -1.9381 H   0  0  0  1  0  1  0  0  0  0  0  0
   -0.0318   -2.6355    0.2559 H   0  0  0  1  0  1  0  0  0  0  0  0
   -0.6051    1.0495    2.3497 H   0  0  0  1  0  1  0  0  0  0  0  0
    2.2929    7.4519    1.9536 H   0  0  0  1  0  1  0  0  0  0  0  0
    3.7295    6.4172   -1.9322 H   0  0  0  1  0  1  0  0  0  0  0  0
   -0.5478   -3.8795    2.3157 H   0  0  0  1  0  1  0  0  0  0  0  0
   -1.1196   -0.2044    4.4039 H   0  0  0  1  0  1  0  0  0  0  0  0
   -1.0958   -2.6652    4.3849 H   0  0  0  1  0  1  0  0  0  0  0  0
  1 18  1  0  0  0  0
  2  7  2  0  0  0  0
  3 10  2  0  0  0  0
  4  5  1  0  0  0  0
  4  7  1  0  0  0  0
  4 10  1  0  0  0  0
  5 11  1  0  0  0  0
  5 23  1  0  0  0  0
  6  7  1  0  0  0  0
  6  8  1  0  0  0  0
  6  9  2  0  0  0  0
  8 12  2  0  0  0  0
  8 13  1  0  0  0  0
  9 10  1  0  0  0  0
  9 22  1  0  0  0  0
 11 14  2  0  0  0  0
 11 15  1  0  0  0  0
 12 16  1  0  0  0  0
 12 24  1  0  0  0  0
 13 17  2  0  0  0  0
 13 25  1  0  0  0  0
 14 19  1  0  0  0  0
 14 26  1  0  0  0  0
 15 20  2  0  0  0  0
 15 27  1  0  0  0  0
 16 18  2  0  0  0  0
 16 28  1  0  0  0  0
 17 18  1  0  0  0  0
 17 29  1  0  0  0  0
 19 21  2  0  0  0  0
 19 30  1  0  0  0  0
 20 21  1  0  0  0  0
 20 31  1  0  0  0  0
 21 32  1  0  0  0  0
M  END
> <Activity>
3.728

> <Mapped(file=504701.csv.activities,property=Cached(PUBCHEM_COMPOUND_CID))>
3.728

> <PUBCHEM_ATOM_DEF_STEREO_COUNT>
0

> <PUBCHEM_ATOM_UDEF_STEREO_COUNT>
0

> <PUBCHEM_BONDANNOTATIONS>
11  14  8
11  15  8
12  16  8
13  17  8
14  19  8
15  20  8
16  18  8
17  18  8
19  21  8
20  21  8
8  12  8
8  13  8

> <PUBCHEM_BOND_DEF_STEREO_COUNT>
0

> <PUBCHEM_BOND_UDEF_STEREO_COUNT>
0

> <PUBCHEM_CACTVS_COMPLEXITY>
449

> <PUBCHEM_CACTVS_HBOND_ACCEPTOR>
3

> <PUBCHEM_CACTVS_HBOND_DONOR>
1

> <PUBCHEM_CACTVS_ROTATABLE_BOND>
3

> <PUBCHEM_CACTVS_SUBSKEYS>
AAADccB7MAAEAAAAAAAAAAAAAAAAAQAAAAAwYAAAAAAAAAABQAAAHgIYAAAADAqBmCAwwIJiAACIAiVSUACCBAAgBwAaqAEAZsgIIDKBl5GEIABglCCIyYcYiICOBAAAAAAAAAAIAAAAAAAAAAAAAAAAAA==

> <PUBCHEM_CACTVS_TAUTO_COUNT>
1

> <PUBCHEM_CACTVS_TPSA>
49.4

> <PUBCHEM_COMPONENT_COUNT>
1

> <PUBCHEM_COMPOUND_CANONICALIZED>
1

> <PUBCHEM_COMPOUND_CID>
1484340

> <PUBCHEM_COORDINATE_TYPE>
1
5
255

> <PUBCHEM_EXACT_MASS>
298.050905

> <PUBCHEM_HEAVY_ATOM_COUNT>
21

> <PUBCHEM_ISOTOPIC_ATOM_COUNT>
0

> <PUBCHEM_IUPAC_CAS_NAME>
1-anilino-3-(4-chlorophenyl)pyrrole-2,5-dione

> <PUBCHEM_IUPAC_INCHI>
InChI=1S/C16H11ClN2O2/c17-12-8-6-11(7-9-12)14-10-15(20)19(16(14)21)18-13-4-2-1-3-5-13/h1-10,18H

> <PUBCHEM_IUPAC_INCHIKEY>
HKBBRGVRPBTDEA-UHFFFAOYSA-N

> <PUBCHEM_IUPAC_NAME>
1-anilino-3-(4-chlorophenyl)pyrrole-2,5-dione

> <PUBCHEM_IUPAC_OPENEYE_NAME>
1-anilino-3-(4-chlorophenyl)pyrrole-2,5-dione

> <PUBCHEM_IUPAC_SYSTEMATIC_NAME>
3-(4-chlorophenyl)-1-phenylazanyl-pyrrole-2,5-dione

> <PUBCHEM_IUPAC_TRADITIONAL_NAME>
1-anilino-3-(4-chlorophenyl)-3-pyrroline-2,5-quinone

> <PUBCHEM_MOLECULAR_FORMULA>
C16H11ClN2O2

> <PUBCHEM_MOLECULAR_WEIGHT>
298.72374

> <PUBCHEM_MONOISOTOPIC_WEIGHT>
298.050905

> <PUBCHEM_OPENEYE_CAN_SMILES>
C1=CC=C(C=C1)NN2C(=O)C=C(C2=O)C3=CC=C(C=C3)Cl

> <PUBCHEM_OPENEYE_ISO_SMILES>
C1=CC=C(C=C1)NN2C(=O)C=C(C2=O)C3=CC=C(C=C3)Cl

> <PUBCHEM_TOTAL_CHARGE>
0

> <PUBCHEM_XLOGP3_AA>
3.6

$$$$
Written by BCL::WriteToMDL,1813635
MBcorina  10171218483D 1   1.00000     0.00000 
CORINA 3.49 0026  01.06.2011
 44 47  0  0  0  0  0  0  0  0999 V2000
   -0.0144    1.2138    0.0087 O   0  0  0  1  0  2  0  0  0  0  0  0
    3.7195    5.9875   -0.0008 O   0  0  0  1  0  2  0  0  0  0  0  0
    1.3854    7.4443    0.0294 O   0  0  0  1  0  2  0  0  0  0  0  0
    2.2056    1.1939   -0.0126 O   0  0  0  1  0  1  0  0  0  0  0  0
    0.0021   -0.0041    0.0020 N   0  0  0  1  0  2  0  0  0  0  0  0
   -2.6378   -2.4387    0.0137 C   0  0  0  1  0  3  0  0  0  0  0  0
   -3.3959   -1.1658    0.0274 C   0  0  0  1  0  3  0  0  0  0  0  0
   -1.2644   -2.1451    0.0026 C   0  0  0  1  0  3  0  0  0  0  0  0
   -2.4836   -0.0980    0.0247 C   0  0  0  1  0  3  0  0  0  0  0  0
   -1.1163   -0.6702    0.0091 C   0  0  0  1  0  3  0  0  0  0  0  0
   -3.0533   -3.7672    0.0155 C   0  0  0  1  0  3  0  0  0  0  0  0
   -4.7618   -0.8985    0.0410 C   0  0  0  1  0  3  0  0  0  0  0  0
   -0.3348   -3.1790   -0.0110 C   0  0  0  1  0  3  0  0  0  0  0  0
   -2.9499    1.2119    0.0356 C   0  0  0  1  0  3  0  0  0  0  0  0
   -5.2102    0.4086    0.0517 C   0  0  0  1  0  3  0  0  0  0  0  0
   -2.1175   -4.7840    0.0002 C   0  0  0  1  0  3  0  0  0  0  0  0
   -0.7652   -4.4926   -0.0137 C   0  0  0  1  0  3  0  0  0  0  0  0
   -4.3099    1.4590    0.0490 C   0  0  0  1  0  3  0  0  0  0  0  0
    1.2348    3.3153    0.0081 C   0  0  0  1  0  3  0  0  0  0  0  0
    1.1776    1.8418    0.0007 C   0  0  0  1  0  3  0  0  0  0  0  0
    2.4708    3.9685   -0.0002 C   0  0  0  1  0  3  0  0  0  0  0  0
    2.5188    5.3488    0.0068 C   0  0  0  1  0  3  0  0  0  0  0  0
    0.0534    4.0621    0.0176 C   0  0  0  1  0  3  0  0  0  0  0  0
    1.3364    6.0874    0.0221 C   0  0  0  1  0  3  0  0  0  0  0  0
    0.1087    5.4386    0.0245 C   0  0  0  1  0  3  0  0  0  0  0  0
    4.8901    5.1681   -0.0160 C   0  0  0  1  0  4  0  0  0  0  0  0
    0.1365    8.1386    0.0451 C   0  0  0  1  0  4  0  0  0  0  0  0
   -5.4714   -1.7128    0.0428 H   0  0  0  1  0  1  0  0  0  0  0  0
   -4.1071   -4.0033    0.0294 H   0  0  0  1  0  1  0  0  0  0  0  0
   -2.2506    2.0349    0.0339 H   0  0  0  1  0  1  0  0  0  0  0  0
    0.7219   -2.9561   -0.0199 H   0  0  0  1  0  1  0  0  0  0  0  0
   -2.4442   -5.8134    0.0020 H   0  0  0  1  0  1  0  0  0  0  0  0
   -6.2709    0.6116    0.0618 H   0  0  0  1  0  1  0  0  0  0  0  0
   -4.6713    2.4768    0.0575 H   0  0  0  1  0  1  0  0  0  0  0  0
   -0.0425   -5.2951   -0.0243 H   0  0  0  1  0  1  0  0  0  0  0  0
    3.3860    3.3951   -0.0117 H   0  0  0  1  0  1  0  0  0  0  0  0
   -0.9028    3.5600    0.0192 H   0  0  0  1  0  1  0  0  0  0  0  0
   -0.8049    6.0144    0.0319 H   0  0  0  1  0  1  0  0  0  0  0  0
    4.9013    4.5340    0.8705 H   0  0  0  1  0  1  0  0  0  0  0  0
    4.8849    4.5436   -0.9093 H   0  0  0  1  0  1  0  0  0  0  0  0
    5.7771    5.8016   -0.0207 H   0  0  0  1  0  1  0  0  0  0  0  0
   -0.4390    7.8711   -0.8411 H   0  0  0  1  0  1  0  0  0  0  0  0
   -0.4224    7.8609    0.9387 H   0  0  0  1  0  1  0  0  0  0  0  0
    0.3182    9.2133    0.0495 H   0  0  0  1  0  1  0  0  0  0  0  0
  1  5  1  0  0  0  0
  1 20  1  0  0  0  0
  2 22  1  0  0  0  0
  2 26  1  0  0  0  0
  3 24  1  0  0  0  0
  3 27  1  0  0  0  0
  4 20  2  0  0  0  0
  5 10  2  0  0  0  0
  6  7  1  0  0  0  0
  6  8  1  0  0  0  0
  6 11  2  0  0  0  0
  7  9  1  0  0  0  0
  7 12  2  0  0  0  0
  8 10  1  0  0  0  0
  8 13  2  0  0  0  0
  9 10  1  0  0  0  0
  9 14  2  0  0  0  0
 11 16  1  0  0  0  0
 11 29  1  0  0  0  0
 12 15  1  0  0  0  0
 12 28  1  0  0  0  0
 13 17  1  0  0  0  0
 13 31  1  0  0  0  0
 14 18  1  0  0  0  0
 14 30  1  0  0  0  0
 15 18  2  0  0  0  0
 15 33  1  0  0  0  0
 16 17  2  0  0  0  0
 16 32  1  0  0  0  0
 17 35  1  0  0  0  0
 18 34  1  0  0  0  0
 19 20  1  0  0  0  0
 19 21  2  0  0  0  0
 19 23  1  0  0  0  0
 21 22  1  0  0  0  0
 21 36  1  0  0  0  0
 22 24  2  0  0  0  0
 23 25  2  0  0  0  0
 23 37  1  0  0  0  0
 24 25  1  0  0  0  0
 25 38  1  0  0  0  0
 26 39  1  0  0  0  0
 26 40  1  0  0  0  0
 26 41  1  0  0  0  0
 27 42  1  0  0  0  0
 27 43  1  0  0  0  0
 27 44  1  0  0  0  0
M  END
> <Activity>
1.241

> <Mapped(file=504701.csv.activities,property=Cached(PUBCHEM_COMPOUND_CID))>
1.241

> <PUBCHEM_ATOM_DEF_STEREO_COUNT>
0

> <PUBCHEM_ATOM_UDEF_STEREO_COUNT>
0

> <PUBCHEM_BONDANNOTATIONS>
11  16  8
12  15  8
13  17  8
14  18  8
15  18  8
16  17  8
19  21  8
19  23  8
21  22  8
22  24  8
23  25  8
24  25  8
6  11  8
6  8  8
7  12  8
7  9  8
8  13  8
9  14  8

> <PUBCHEM_BOND_DEF_STEREO_COUNT>
0

> <PUBCHEM_BOND_UDEF_STEREO_COUNT>
0

> <PUBCHEM_CACTVS_COMPLEXITY>
539

> <PUBCHEM_CACTVS_HBOND_ACCEPTOR>
5

> <PUBCHEM_CACTVS_HBOND_DONOR>
0

> <PUBCHEM_CACTVS_ROTATABLE_BOND>
5

> <PUBCHEM_CACTVS_SUBSKEYS>
AAADceB6OAAAAAAAAAAAAAAAAAAAAYAAAAAwYMAAAAAAAGABUAAAHgAEAAAADAyBmAIyDoAQBACoAyDyCAACCAAkIAAIiAEmiNgNJrKENRqAMSIkwBEKqYfK7PzOoAABAAAQQABAAAIAACCAAQAACAAAAA==

> <PUBCHEM_CACTVS_TAUTO_COUNT>
1

> <PUBCHEM_CACTVS_TPSA>
57.1

> <PUBCHEM_COMPONENT_COUNT>
1

> <PUBCHEM_COMPOUND_CANONICALIZED>
1

> <PUBCHEM_COMPOUND_CID>
1813635

> <PUBCHEM_COORDINATE_TYPE>
1
5
255

> <PUBCHEM_EXACT_MASS>
359.115758

> <PUBCHEM_HEAVY_ATOM_COUNT>
27

> <PUBCHEM_ISOTOPIC_ATOM_COUNT>
0

> <PUBCHEM_IUPAC_CAS_NAME>
3,4-dimethoxybenzoic acid (9-fluorenylideneamino) ester

> <PUBCHEM_IUPAC_INCHI>
InChI=1S/C22H17NO4/c1-25-19-12-11-14(13-20(19)26-2)22(24)27-23-21-17-9-5-3-7-15(17)16-8-4-6-10-18(16)21/h3-13H,1-2H3

> <PUBCHEM_IUPAC_INCHIKEY>
NJKFXXJNMHKTQM-UHFFFAOYSA-N

> <PUBCHEM_IUPAC_NAME>
(fluoren-9-ylideneamino) 3,4-dimethoxybenzoate

> <PUBCHEM_IUPAC_OPENEYE_NAME>
(fluoren-9-ylideneamino) 3,4-dimethoxybenzoate

> <PUBCHEM_IUPAC_SYSTEMATIC_NAME>
(fluoren-9-ylideneamino) 3,4-dimethoxybenzoate

> <PUBCHEM_IUPAC_TRADITIONAL_NAME>
3,4-dimethoxybenzoic acid (fluoren-9-ylideneamino) ester

> <PUBCHEM_MOLECULAR_FORMULA>
C22H17NO4

> <PUBCHEM_MOLECULAR_WEIGHT>
359.37468

> <PUBCHEM_MONOISOTOPIC_WEIGHT>
359.115758

> <PUBCHEM_OPENEYE_CAN_SMILES>
COC1=C(C=C(C=C1)C(=O)ON=C2C3=CC=CC=C3C4=CC=CC=C42)OC

> <PUBCHEM_OPENEYE_ISO_SMILES>
COC1=C(C=C(C=C1)C(=O)ON=C2C3=CC=CC=C3C4=CC=CC=C42)OC

> <PUBCHEM_TOTAL_CHARGE>
0

> <PUBCHEM_XLOGP3_AA>
5

$$$$
Largest component of Written by BCL::WriteToMDL,23723175
MBcorina  10171218483D 1   1.00000     0.00000 
CORINA 3.49 0026  01.06.2011
 50 53  0  0  0  0  0  0  0  0999 V2000
    8.5905   17.4787   11.3002 S   0  0  0  1  0  2  0  0  0  0  0  0
    7.8568   13.8825    8.6499 N   0  0  0  1  0  3  0  0  0  0  0  0
    9.1713   12.0733    6.8879 N   0  0  0  1  0  3  0  0  0  0  0  0
    7.7518   14.7570    9.8255 C   0  0  0  1  0  4  0  0  0  0  0  0
    8.1004   12.4895    9.0498 C   0  0  0  1  0  4  0  0  0  0  0  0
    8.9041   14.3552    7.7337 C   0  0  0  1  0  4  0  0  0  0  0  0
    8.9278   13.4663    6.4880 C   0  0  0  1  0  4  0  0  0  0  0  0
    8.1240   11.6006    7.8040 C   0  0  0  1  0  4  0  0  0  0  0  0
    9.1322   14.8860   10.4681 C   0  0  0  1  0  4  0  0  0  0  0  0
    7.1770   16.0874    9.3934 C   0  0  0  1  0  3  0  0  0  0  0  0
    8.9487   14.9087   11.9901 C   0  0  0  1  0  4  0  0  0  0  0  0
    9.2764   11.1988    5.7123 C   0  0  0  1  0  4  0  0  0  0  0  0
    7.4158   17.3103    9.9985 C   0  0  0  1  0  3  0  0  0  0  0  0
    8.1623   16.1204   12.4306 C   0  0  0  1  0  4  0  0  0  0  0  0
    6.3143   16.0451    8.3006 C   0  0  0  1  0  3  0  0  0  0  0  0
    9.7656    9.8390    6.1398 C   0  0  0  1  0  3  0  0  0  0  0  0
    6.7319   18.4479    9.5735 C   0  0  0  1  0  3  0  0  0  0  0  0
    5.6618   17.1769    7.8634 C   0  0  0  1  0  3  0  0  0  0  0  0
    5.8527   18.3825    8.5140 C   0  0  0  1  0  3  0  0  0  0  0  0
    8.8586    8.8598    6.4994 C   0  0  0  1  0  3  0  0  0  0  0  0
   11.1211    9.5693    6.1670 C   0  0  0  1  0  3  0  0  0  0  0  0
    9.3074    7.6125    6.8916 C   0  0  0  1  0  3  0  0  0  0  0  0
   11.5699    8.3220    6.5592 C   0  0  0  1  0  3  0  0  0  0  0  0
   10.6631    7.3444    6.9238 C   0  0  0  1  0  3  0  0  0  0  0  0
    7.0715   14.2990   10.5436 H   0  0  0  1  0  1  0  0  0  0  0  0
    8.6948   15.3844    7.4422 H   0  0  0  1  0  1  0  0  0  0  0  0
    9.0592   12.4210    9.5636 H   0  0  0  1  0  1  0  0  0  0  0  0
    7.3051   12.1585    9.7176 H   0  0  0  1  0  1  0  0  0  0  0  0
    9.8721   14.3079    8.2326 H   0  0  0  1  0  1  0  0  0  0  0  0
    7.1560   11.6479    7.3052 H   0  0  0  1  0  1  0  0  0  0  0  0
    8.3333   10.5714    8.0956 H   0  0  0  1  0  1  0  0  0  0  0  0
    9.7231   13.7973    5.8202 H   0  0  0  1  0  1  0  0  0  0  0  0
    7.9689   13.5348    5.9742 H   0  0  0  1  0  1  0  0  0  0  0  0
    9.7513   14.0348   10.1846 H   0  0  0  1  0  1  0  0  0  0  0  0
    9.6057   15.8116   10.1406 H   0  0  0  1  0  1  0  0  0  0  0  0
    8.4187   14.0077   12.2991 H   0  0  0  1  0  1  0  0  0  0  0  0
    9.9285   14.9264   12.4674 H   0  0  0  1  0  1  0  0  0  0  0  0
    8.2974   11.1017    5.2430 H   0  0  0  1  0  1  0  0  0  0  0  0
    9.9795   11.6305    5.0000 H   0  0  0  1  0  1  0  0  0  0  0  0
    8.4335   16.3879   13.4519 H   0  0  0  1  0  1  0  0  0  0  0  0
    7.0942   15.9113   12.3718 H   0  0  0  1  0  1  0  0  0  0  0  0
    6.1541   15.1086    7.7870 H   0  0  0  1  0  1  0  0  0  0  0  0
    6.8919   19.3888   10.0790 H   0  0  0  1  0  1  0  0  0  0  0  0
    5.0000   17.1227    7.0116 H   0  0  0  1  0  1  0  0  0  0  0  0
    5.3174   19.2645    8.1950 H   0  0  0  1  0  1  0  0  0  0  0  0
    7.7994    9.0692    6.4742 H   0  0  0  1  0  1  0  0  0  0  0  0
   11.8295   10.3329    5.8815 H   0  0  0  1  0  1  0  0  0  0  0  0
    8.5988    6.8476    7.1731 H   0  0  0  1  0  1  0  0  0  0  0  0
   12.6289    8.1111    6.5801 H   0  0  0  1  0  1  0  0  0  0  0  0
   11.0137    6.3700    7.2305 H   0  0  0  1  0  1  0  0  0  0  0  0
  1 13  1  0  0  0  0
  1 14  1  0  0  0  0
  2  4  1  0  0  0  0
  2  5  1  0  0  0  0
  2  6  1  0  0  0  0
  3  7  1  0  0  0  0
  3  8  1  0  0  0  0
  3 12  1  0  0  0  0
  4  9  1  0  0  0  0
  4 10  1  0  0  0  0
  4 25  1  0  0  0  0
  5  8  1  0  0  0  0
  5 27  1  0  0  0  0
  5 28  1  0  0  0  0
  6  7  1  0  0  0  0
  6 26  1  0  0  0  0
  6 29  1  0  0  0  0
  7 32  1  0  0  0  0
  7 33  1  0  0  0  0
  8 30  1  0  0  0  0
  8 31  1  0  0  0  0
  9 11  1  0  0  0  0
  9 34  1  0  0  0  0
  9 35  1  0  0  0  0
 10 13  1  0  0  0  0
 10 15  2  0  0  0  0
 11 14  1  0  0  0  0
 11 36  1  0  0  0  0
 11 37  1  0  0  0  0
 12 16  1  0  0  0  0
 12 38  1  0  0  0  0
 12 39  1  0  0  0  0
 13 17  2  0  0  0  0
 14 40  1  0  0  0  0
 14 41  1  0  0  0  0
 15 18  1  0  0  0  0
 15 42  1  0  0  0  0
 16 20  2  0  0  0  0
 16 21  1  0  0  0  0
 17 19  1  0  0  0  0
 17 43  1  0  0  0  0
 18 19  2  0  0  0  0
 18 44  1  0  0  0  0
 19 45  1  0  0  0  0
 20 22  1  0  0  0  0
 20 46  1  0  0  0  0
 21 23  2  0  0  0  0
 21 47  1  0  0  0  0
 22 24  2  0  0  0  0
 22 48  1  0  0  0  0
 23 24  1  0  0  0  0
 23 49  1  0  0  0  0
 24 50  1  0  0  0  0
M  END
> <Activity>
1.586

> <Mapped(file=504701.csv.activities,property=Cached(PUBCHEM_COMPOUND_CID))>
1.586

> <PUBCHEM_ATOM_DEF_STEREO_COUNT>
0

> <PUBCHEM_ATOM_UDEF_STEREO_COUNT>
1

> <PUBCHEM_BONDANNOTATIONS>
11  14  8
11  16  8
14  18  8
16  19  8
17  21  8
17  22  8
18  20  8
19  20  8
21  23  8
22  24  8
23  25  8
24  25  8
5  3  3

> <PUBCHEM_BOND_DEF_STEREO_COUNT>
0

> <PUBCHEM_BOND_UDEF_STEREO_COUNT>
0

> <PUBCHEM_CACTVS_COMPLEXITY>
374

> <PUBCHEM_CACTVS_HBOND_ACCEPTOR>
3

> <PUBCHEM_CACTVS_HBOND_DONOR>
1

> <PUBCHEM_CACTVS_ROTATABLE_BOND>
3

> <PUBCHEM_CACTVS_SUBSKEYS>
AAADceB7AABEAAAAAAAAAAAAAAAAAAAAAAA8YIAABIAAAAABQAAAHAQAAAAADCjFWASwAYMAAAiAAiBCAACCAAAgCBAIiBgIBIgIYCKgkRGUIAhggACoiAcQgIAOAAAAAAAEAAAAAAAAAAgAAAAAAAAAAA==

> <PUBCHEM_CACTVS_TAUTO_COUNT>
1

> <PUBCHEM_CACTVS_TPSA>
31.8

> <PUBCHEM_COMPONENT_COUNT>
2

> <PUBCHEM_COMPOUND_CANONICALIZED>
1

> <PUBCHEM_COMPOUND_CID>
23723175

> <PUBCHEM_COORDINATE_TYPE>
1
5
255

> <PUBCHEM_EXACT_MASS>
374.158348

> <PUBCHEM_HEAVY_ATOM_COUNT>
25

> <PUBCHEM_ISOTOPIC_ATOM_COUNT>
0

> <PUBCHEM_IUPAC_CAS_NAME>
1-(phenylmethyl)-4-(2,3,4,5-tetrahydro-1-benzothiepin-5-yl)piperazine hydrochloride

> <PUBCHEM_IUPAC_INCHI>
InChI=1S/C21H26N2S.ClH/c1-2-7-18(8-3-1)17-22-12-14-23(15-13-22)20-10-6-16-24-21-11-5-4-9-19(20)21;/h1-5,7-9,11,20H,6,10,12-17H2;1H

> <PUBCHEM_IUPAC_INCHIKEY>
UQCIGWHFYGTONM-UHFFFAOYSA-N

> <PUBCHEM_IUPAC_NAME>
1-benzyl-4-(2,3,4,5-tetrahydro-1-benzothiepin-5-yl)piperazine hydrochloride

> <PUBCHEM_IUPAC_OPENEYE_NAME>
1-benzyl-4-(2,3,4,5-tetrahydro-1-benzothiepin-5-yl)piperazine hydrochloride

> <PUBCHEM_IUPAC_SYSTEMATIC_NAME>
1-(phenylmethyl)-4-(2,3,4,5-tetrahydro-1-benzothiepin-5-yl)piperazine hydrochloride

> <PUBCHEM_IUPAC_TRADITIONAL_NAME>
1-benzyl-4-(2,3,4,5-tetrahydro-1-benzothiepin-5-yl)piperazine hydrochloride

> <PUBCHEM_MOLECULAR_FORMULA>
C21H27ClN2S

> <PUBCHEM_MOLECULAR_WEIGHT>
374.97048

> <PUBCHEM_MONOISOTOPIC_WEIGHT>
374.158348

> <PUBCHEM_OPENEYE_CAN_SMILES>
C1CC(C2=CC=CC=C2SC1)N3CCN(CC3)CC4=CC=CC=C4.Cl

> <PUBCHEM_OPENEYE_ISO_SMILES>
C1CC(C2=CC=CC=C2SC1)N3CCN(CC3)CC4=CC=CC=C4.Cl

> <PUBCHEM_TOTAL_CHARGE>
0

$$$$
Written by BCL::WriteToMDL,5013043
MBcorina  10171218483D 1   1.00000     0.00000 
CORINA 3.49 0026  01.06.2011
 34 37  0  0  0  0  0  0  0  0999 V2000
   -0.0218    1.7578    0.0117 S   0  0  0  1  0  2  0  0  0  0  0  0
   -2.7923   -0.7171    0.0249 S   0  0  0  1  0  2  0  0  0  0  0  0
   -4.5938   -3.2651    0.0279 S   0  0  0  1  0  2  0  0  0  0  0  0
    4.3881    1.7716   -0.0303 O   0  0  0  1  0  1  0  0  0  0  0  0
    2.2075    0.5956   -0.0158 N   0  0  0  1  0  2  0  0  0  0  0  0
   -1.8874   -3.0637    0.0036 N   0  0  0  1  0  2  0  0  0  0  0  0
    2.5041    2.9472   -0.0060 N   0  0  0  1  0  3  0  0  0  0  0  0
    0.0021   -0.0041    0.0020 C   0  0  0  1  0  3  0  0  0  0  0  0
   -1.0444   -0.9392    0.0070 C   0  0  0  1  0  3  0  0  0  0  0  0
    1.3293   -0.4274   -0.0129 C   0  0  0  1  0  3  0  0  0  0  0  0
   -0.7725   -2.3049   -0.0030 C   0  0  0  1  0  3  0  0  0  0  0  0
    1.5893   -1.8189   -0.0229 C   0  0  0  1  0  3  0  0  0  0  0  0
    0.5810   -2.7194   -0.0181 C   0  0  0  1  0  3  0  0  0  0  0  0
    1.7359    1.7941   -0.0049 C   0  0  0  1  0  3  0  0  0  0  0  0
   -3.0267   -2.4596    0.0178 C   0  0  0  1  0  3  0  0  0  0  0  0
    3.8490    2.8610   -0.0193 C   0  0  0  1  0  3  0  0  0  0  0  0
    4.6684    4.0909   -0.0205 C   0  0  0  1  0  3  0  0  0  0  0  0
    6.0617    4.0052   -0.0343 C   0  0  0  1  0  3  0  0  0  0  0  0
    4.0524    5.3437   -0.0138 C   0  0  0  1  0  3  0  0  0  0  0  0
    6.8205    5.1572   -0.0358 C   0  0  0  1  0  3  0  0  0  0  0  0
    4.8231    6.4878   -0.0154 C   0  0  0  1  0  3  0  0  0  0  0  0
    6.2037    6.3957   -0.0238 C   0  0  0  1  0  3  0  0  0  0  0  0
   -4.0585   -4.9941    0.0137 C   0  0  0  1  0  4  0  0  0  0  0  0
    2.6115   -2.1673   -0.0345 H   0  0  0  1  0  1  0  0  0  0  0  0
    0.8124   -3.7743   -0.0260 H   0  0  0  1  0  1  0  0  0  0  0  0
    2.0739    3.8165    0.0028 H   0  0  0  1  0  1  0  0  0  0  0  0
    6.5444    3.0391   -0.0434 H   0  0  0  1  0  1  0  0  0  0  0  0
    2.9749    5.4170   -0.0076 H   0  0  0  1  0  1  0  0  0  0  0  0
    7.8985    5.0923   -0.0461 H   0  0  0  1  0  1  0  0  0  0  0  0
    4.3479    7.4576   -0.0106 H   0  0  0  1  0  1  0  0  0  0  0  0
    6.8024    7.2945   -0.0251 H   0  0  0  1  0  1  0  0  0  0  0  0
   -4.9328   -5.6451    0.0183 H   0  0  0  1  0  1  0  0  0  0  0  0
   -3.4684   -5.1844   -0.8827 H   0  0  0  1  0  1  0  0  0  0  0  0
   -3.4521   -5.1939    0.8971 H   0  0  0  1  0  1  0  0  0  0  0  0
  1  8  1  0  0  0  0
  1 14  1  0  0  0  0
  2  9  1  0  0  0  0
  2 15  1  0  0  0  0
  3 15  1  0  0  0  0
  3 23  1  0  0  0  0
  4 16  2  0  0  0  0
  5 10  1  0  0  0  0
  5 14  2  0  0  0  0
  6 11  1  0  0  0  0
  6 15  2  0  0  0  0
  7 14  1  0  0  0  0
  7 16  1  0  0  0  0
  7 26  1  0  0  0  0
  8  9  1  0  0  0  0
  8 10  2  0  0  0  0
  9 11  2  0  0  0  0
 10 12  1  0  0  0  0
 11 13  1  0  0  0  0
 12 13  2  0  0  0  0
 12 24  1  0  0  0  0
 13 25  1  0  0  0  0
 16 17  1  0  0  0  0
 17 18  2  0  0  0  0
 17 19  1  0  0  0  0
 18 20  1  0  0  0  0
 18 27  1  0  0  0  0
 19 21  2  0  0  0  0
 19 28  1  0  0  0  0
 20 22  2  0  0  0  0
 20 29  1  0  0  0  0
 21 22  1  0  0  0  0
 21 30  1  0  0  0  0
 22 31  1  0  0  0  0
 23 32  1  0  0  0  0
 23 33  1  0  0  0  0
 23 34  1  0  0  0  0
M  END
> <Activity>
1.128

> <Mapped(file=504701.csv.activities,property=Cached(PUBCHEM_COMPOUND_CID))>
1.128

> <PUBCHEM_ATOM_DEF_STEREO_COUNT>
0

> <PUBCHEM_ATOM_UDEF_STEREO_COUNT>
0

> <PUBCHEM_BONDANNOTATIONS>
1  14  8
1  8  8
10  12  8
11  13  8
12  13  8
17  18  8
17  19  8
18  20  8
19  21  8
2  15  8
2  9  8
20  22  8
21  22  8
5  10  8
5  14  8
6  11  8
6  15  8
8  10  8
8  9  8
9  11  8

> <PUBCHEM_BOND_DEF_STEREO_COUNT>
0

> <PUBCHEM_BOND_UDEF_STEREO_COUNT>
0

> <PUBCHEM_CACTVS_COMPLEXITY>
446

> <PUBCHEM_CACTVS_HBOND_ACCEPTOR>
4

> <PUBCHEM_CACTVS_HBOND_DONOR>
1

> <PUBCHEM_CACTVS_ROTATABLE_BOND>
3

> <PUBCHEM_CACTVS_SUBSKEYS>
AAADccB7IABgAAAAAAAAAAAAAAAAAWLAAAAwYAAAAAAAAFgB/gAAHgQQAAAADAiB3gCz0bLIEAisAyVydACD8allCjkJmDUwZNiIILLgnZGEIQxogQJIyacYiACOAACAACAAAwAAAQAAQAAGAAAAAAAAAA==

> <PUBCHEM_CACTVS_TAUTO_COUNT>
3

> <PUBCHEM_CACTVS_TPSA>
137

> <PUBCHEM_COMPONENT_COUNT>
1

> <PUBCHEM_COMPOUND_CANONICALIZED>
1

> <PUBCHEM_COMPOUND_CID>
5013043

> <PUBCHEM_COORDINATE_TYPE>
1
5
255

> <PUBCHEM_EXACT_MASS>
357.006425

> <PUBCHEM_HEAVY_ATOM_COUNT>
23

> <PUBCHEM_ISOTOPIC_ATOM_COUNT>
0

> <PUBCHEM_IUPAC_CAS_NAME>
N-[2-(methylthio)-7-thiazolo[4,5-g][1,3]benzothiazolyl]benzamide

> <PUBCHEM_IUPAC_INCHI>
InChI=1S/C16H11N3OS3/c1-21-16-18-11-8-7-10-12(13(11)23-16)22-15(17-10)19-14(20)9-5-3-2-4-6-9/h2-8H,1H3,(H,17,19,20)

> <PUBCHEM_IUPAC_INCHIKEY>
VZLGPCYXRFHJFJ-UHFFFAOYSA-N

> <PUBCHEM_IUPAC_NAME>
N-(2-methylsulfanyl-[1,3]thiazolo[4,5-g][1,3]benzothiazol-7-yl)benzamide

> <PUBCHEM_IUPAC_OPENEYE_NAME>
N-(2-methylsulfanylthiazolo[4,5-g][1,3]benzothiazol-7-yl)benzamide

> <PUBCHEM_IUPAC_SYSTEMATIC_NAME>
N-(2-methylsulfanyl-[1,3]thiazolo[4,5-g][1,3]benzothiazol-7-yl)benzamide

> <PUBCHEM_IUPAC_TRADITIONAL_NAME>
N-[2-(methylthio)thiazolo[4,5-g][1,3]benzothiazol-7-yl]benzamide

> <PUBCHEM_MOLECULAR_FORMULA>
C16H11N3OS3

> <PUBCHEM_MOLECULAR_WEIGHT>
357.47304

> <PUBCHEM_MONOISOTOPIC_WEIGHT>
357.006425

> <PUBCHEM_OPENEYE_CAN_SMILES>
CSC1=NC2=C(S1)C3=C(C=C2)N=C(S3)NC(=O)C4=CC=CC=C4

> <PUBCHEM_OPENEYE_ISO_SMILES>
CSC1=NC2=C(S1)C3=C(C=C2)N=C(S3)NC(=O)C4=CC=CC=C4

> <PUBCHEM_TOTAL_CHARGE>
0

> <PUBCHEM_XLOGP3_AA>
4.8

$$$$
Written by BCL::WriteToMDL,4137760
MBcorina  10171218483D 1   1.00000     0.00000 
CORINA 3.49 0026  01.06.2011
 42 46  0  0  0  0  0  0  0  0999 V2000
   -0.0218    1.7574    0.0117 S   0  0  0  1  0  2  0  0  0  0  0  0
   -2.2685   -3.2035    0.0065 S   0  0  0  1  0  2  0  0  0  0  0  0
    4.3877    1.7687   -0.0304 O   0  0  0  1  0  1  0  0  0  0  0  0
    2.5067    2.9447   -0.0056 N   0  0  0  1  0  3  0  0  0  0  0  0
    2.2052    0.5926   -0.0158 N   0  0  0  1  0  2  0  0  0  0  0  0
   -2.3921   -0.7275    0.0210 N   0  0  0  1  0  2  0  0  0  0  0  0
    6.1493    3.7374   -0.0359 C   0  0  0  1  0  3  0  0  0  0  0  0
    6.7961    3.4674   -1.2541 C   0  0  0  1  0  3  0  0  0  0  0  0
    4.6889    4.1093   -0.0198 C   0  0  0  1  0  4  0  0  0  0  0  0
    0.0021   -0.0041    0.0020 C   0  0  0  1  0  3  0  0  0  0  0  0
   -1.0636   -0.9419    0.0072 C   0  0  0  1  0  3  0  0  0  0  0  0
    8.1702    3.1194   -1.2489 C   0  0  0  1  0  3  0  0  0  0  0  0
    1.3241   -0.4297   -0.0129 C   0  0  0  1  0  3  0  0  0  0  0  0
   -0.7557   -2.3019   -0.0031 C   0  0  0  1  0  3  0  0  0  0  0  0
    6.8472    3.6558    1.1295 C   0  0  0  1  0  3  0  0  0  0  0  0
    1.7362    1.7918   -0.0049 C   0  0  0  1  0  3  0  0  0  0  0  0
    3.8515    2.8564   -0.0190 C   0  0  0  1  0  3  0  0  0  0  0  0
    1.5913   -1.8212   -0.0234 C   0  0  0  1  0  3  0  0  0  0  0  0
    0.5774   -2.7215   -0.0181 C   0  0  0  1  0  3  0  0  0  0  0  0
    6.1075    3.5352   -2.4769 C   0  0  0  1  0  3  0  0  0  0  0  0
    8.8590    3.0510   -0.0257 C   0  0  0  1  0  3  0  0  0  0  0  0
    8.1970    3.3084    1.1351 C   0  0  0  1  0  3  0  0  0  0  0  0
    8.8170    2.8490   -2.4665 C   0  0  0  1  0  3  0  0  0  0  0  0
   -3.1622   -1.7497    0.0229 C   0  0  0  1  0  3  0  0  0  0  0  0
    6.7670    3.2666   -3.6371 C   0  0  0  1  0  3  0  0  0  0  0  0
    8.1176    2.9246   -3.6320 C   0  0  0  1  0  3  0  0  0  0  0  0
   -4.6675   -1.6787    0.0372 C   0  0  0  1  0  4  0  0  0  0  0  0
    4.4722    4.6918    0.8756 H   0  0  0  1  0  1  0  0  0  0  0  0
    4.4552    4.7020   -0.9042 H   0  0  0  1  0  1  0  0  0  0  0  0
    6.3477    3.8638    2.0642 H   0  0  0  1  0  1  0  0  0  0  0  0
    2.6139   -2.1686   -0.0353 H   0  0  0  1  0  1  0  0  0  0  0  0
    0.8030   -3.7776   -0.0260 H   0  0  0  1  0  1  0  0  0  0  0  0
    5.0603    3.7987   -2.4963 H   0  0  0  1  0  1  0  0  0  0  0  0
    9.9061    2.7871   -0.0064 H   0  0  0  1  0  1  0  0  0  0  0  0
    2.0779    3.8147    0.0034 H   0  0  0  1  0  1  0  0  0  0  0  0
    8.7276    3.2512    2.0740 H   0  0  0  1  0  1  0  0  0  0  0  0
    9.8636    2.5830   -2.4778 H   0  0  0  1  0  1  0  0  0  0  0  0
    6.2352    3.3192   -4.5756 H   0  0  0  1  0  1  0  0  0  0  0  0
    8.6172    2.7166   -4.5666 H   0  0  0  1  0  1  0  0  0  0  0  0
   -5.0789   -2.6880    0.0358 H   0  0  0  1  0  1  0  0  0  0  0  0
   -4.9979   -1.1529    0.9330 H   0  0  0  1  0  1  0  0  0  0  0  0
   -5.0144   -1.1437   -0.8469 H   0  0  0  1  0  1  0  0  0  0  0  0
  1 10  1  0  0  0  0
  1 16  1  0  0  0  0
  2 14  1  0  0  0  0
  2 24  1  0  0  0  0
  3 17  2  0  0  0  0
  4 16  1  0  0  0  0
  4 17  1  0  0  0  0
  4 35  1  0  0  0  0
  5 13  1  0  0  0  0
  5 16  2  0  0  0  0
  6 11  1  0  0  0  0
  6 24  2  0  0  0  0
  7  8  1  0  0  0  0
  7  9  1  0  0  0  0
  7 15  2  0  0  0  0
  8 12  1  0  0  0  0
  8 20  2  0  0  0  0
  9 17  1  0  0  0  0
  9 28  1  0  0  0  0
  9 29  1  0  0  0  0
 10 11  1  0  0  0  0
 10 13  2  0  0  0  0
 11 14  2  0  0  0  0
 12 21  1  0  0  0  0
 12 23  2  0  0  0  0
 13 18  1  0  0  0  0
 14 19  1  0  0  0  0
 15 22  1  0  0  0  0
 15 30  1  0  0  0  0
 18 19  2  0  0  0  0
 18 31  1  0  0  0  0
 19 32  1  0  0  0  0
 20 25  1  0  0  0  0
 20 33  1  0  0  0  0
 21 22  2  0  0  0  0
 21 34  1  0  0  0  0
 22 36  1  0  0  0  0
 23 26  1  0  0  0  0
 23 37  1  0  0  0  0
 24 27  1  0  0  0  0
 25 26  2  0  0  0  0
 25 38  1  0  0  0  0
 26 39  1  0  0  0  0
 27 40  1  0  0  0  0
 27 41  1  0  0  0  0
 27 42  1  0  0  0  0
M  END
> <Activity>
1.452

> <Mapped(file=504701.csv.activities,property=Cached(PUBCHEM_COMPOUND_CID))>
1.452

> <PUBCHEM_ATOM_DEF_STEREO_COUNT>
0

> <PUBCHEM_ATOM_UDEF_STEREO_COUNT>
0

> <PUBCHEM_BONDANNOTATIONS>
1  10  8
1  16  8
10  11  8
10  13  8
11  14  8
12  21  8
12  23  8
13  18  8
14  19  8
15  22  8
18  19  8
2  14  8
2  24  8
20  25  8
21  22  8
23  26  8
25  26  8
5  13  8
5  16  8
6  11  8
6  24  8
7  15  8
7  8  8
8  12  8
8  20  8

> <PUBCHEM_BOND_DEF_STEREO_COUNT>
0

> <PUBCHEM_BOND_UDEF_STEREO_COUNT>
0

> <PUBCHEM_CACTVS_COMPLEXITY>
562

> <PUBCHEM_CACTVS_HBOND_ACCEPTOR>
3

> <PUBCHEM_CACTVS_HBOND_DONOR>
1

> <PUBCHEM_CACTVS_ROTATABLE_BOND>
3

> <PUBCHEM_CACTVS_SUBSKEYS>
AAADccB7IABgAAAAAAAAAAAAAAAAAWLAAAAwYMAAAAAAAFjB/gAAHgQQAAAADAiB3gAz0fLIEAisAyVydACD8KlhCjlJmD0wZJiIILLg3dGEJAhokQLoyCcYiMCOgAQCAEQQAQAACAQAiCACAAAAAAAAAA==

> <PUBCHEM_CACTVS_TAUTO_COUNT>
5

> <PUBCHEM_CACTVS_TPSA>
111

> <PUBCHEM_COMPONENT_COUNT>
1

> <PUBCHEM_COMPOUND_CANONICALIZED>
1

> <PUBCHEM_COMPOUND_CID>
4137760

> <PUBCHEM_COORDINATE_TYPE>
1
5
255

> <PUBCHEM_EXACT_MASS>
389.065654

> <PUBCHEM_HEAVY_ATOM_COUNT>
27

> <PUBCHEM_ISOTOPIC_ATOM_COUNT>
0

> <PUBCHEM_IUPAC_CAS_NAME>
N-(7-methyl-2-thiazolo[5,4-e][1,3]benzothiazolyl)-2-(1-naphthalenyl)acetamide

> <PUBCHEM_IUPAC_INCHI>
InChI=1S/C21H15N3OS2/c1-12-22-19-17(26-12)10-9-16-20(19)27-21(23-16)24-18(25)11-14-7-4-6-13-5-2-3-8-15(13)14/h2-10H,11H2,1H3,(H,23,24,25)

> <PUBCHEM_IUPAC_INCHIKEY>
GBGYYVDQJKPHHK-UHFFFAOYSA-N

> <PUBCHEM_IUPAC_NAME>
N-(7-methyl-[1,3]thiazolo[5,4-e][1,3]benzothiazol-2-yl)-2-naphthalen-1-ylacetamide

> <PUBCHEM_IUPAC_OPENEYE_NAME>
N-(7-methylthiazolo[5,4-e][1,3]benzothiazol-2-yl)-2-(1-naphthyl)acetamide

> <PUBCHEM_IUPAC_SYSTEMATIC_NAME>
N-(7-methyl-[1,3]thiazolo[5,4-e][1,3]benzothiazol-2-yl)-2-naphthalen-1-yl-ethanamide

> <PUBCHEM_IUPAC_TRADITIONAL_NAME>
N-(7-methylthiazolo[5,4-e][1,3]benzothiazol-2-yl)-2-(1-naphthyl)acetamide

> <PUBCHEM_MOLECULAR_FORMULA>
C21H15N3OS2

> <PUBCHEM_MOLECULAR_WEIGHT>
389.4933

> <PUBCHEM_MONOISOTOPIC_WEIGHT>
389.065654

> <PUBCHEM_OPENEYE_CAN_SMILES>
CC1=NC2=C(S1)C=CC3=C2SC(=N3)NC(=O)CC4=CC=CC5=CC=CC=C54

> <PUBCHEM_OPENEYE_ISO_SMILES>
CC1=NC2=C(S1)C=CC3=C2SC(=N3)NC(=O)CC4=CC=CC5=CC=CC=C54

> <PUBCHEM_TOTAL_CHARGE>
0

> <PUBCHEM_XLOGP3_AA>
5.6

$$$$
Written by BCL::WriteToMDL,16188789
MBcorina  10171218483D 1   1.00000     0.00000 
CORINA 3.49 0026  01.06.2011
 52 55  0  0  0  0  0  0  0  0999 V2000
    0.0824    4.4620   -2.5788 Cl  0  0  0  1  0  1  0  0  0  0  0  0
  -10.1696   -6.3761    0.1512 F   0  0  0  1  0  1  0  0  0  0  0  0
   -0.0173    1.4248    0.0099 O   0  0  0  1  0  2  0  0  0  0  0  0
   -2.7905   -2.5727    0.0411 N   0  0  0  1  0  3  0  0  0  0  0  0
   -4.9985   -4.7030    0.7345 N   0  0  0  1  0  2  0  0  0  0  0  0
   -1.4333   -0.5336    0.0129 C   0  0  0  1  0  4  0  0  0  0  0  0
   -2.1507   -0.0403    1.2724 C   0  0  0  1  0  4  0  0  0  0  0  0
   -1.4134   -2.0639    0.0094 C   0  0  0  1  0  4  0  0  0  0  0  0
   -3.5661   -0.6233    1.3056 C   0  0  0  1  0  4  0  0  0  0  0  0
   -2.1740   -0.0297   -1.2274 C   0  0  0  1  0  4  0  0  0  0  0  0
   -3.4844   -2.1510    1.2647 C   0  0  0  1  0  4  0  0  0  0  0  0
    0.0021   -0.0041    0.0020 C   0  0  0  1  0  4  0  0  0  0  0  0
   -2.8150   -4.0346   -0.1007 C   0  0  0  1  0  4  0  0  0  0  0  0
   -2.1974    1.4772   -1.2208 C   0  0  0  1  0  3  0  0  0  0  0  0
   -4.2345   -4.4953   -0.3102 C   0  0  0  1  0  3  0  0  0  0  0  0
   -1.1773    2.1866   -1.8257 C   0  0  0  1  0  3  0  0  0  0  0  0
   -3.2423    2.1495   -0.6144 C   0  0  0  1  0  3  0  0  0  0  0  0
   -4.6997   -4.6896   -1.6091 C   0  0  0  1  0  3  0  0  0  0  0  0
   -1.1990    3.5701   -1.8196 C   0  0  0  1  0  3  0  0  0  0  0  0
   -3.2647    3.5315   -0.6083 C   0  0  0  1  0  3  0  0  0  0  0  0
   -2.2418    4.2423   -1.2078 C   0  0  0  1  0  3  0  0  0  0  0  0
   -6.2643   -5.1115    0.5997 C   0  0  0  1  0  3  0  0  0  0  0  0
   -5.9833   -5.1068   -1.8179 C   0  0  0  1  0  3  0  0  0  0  0  0
   -6.8010   -5.3284   -0.6936 C   0  0  0  1  0  3  0  0  0  0  0  0
   -7.0785   -5.3329    1.7245 C   0  0  0  1  0  3  0  0  0  0  0  0
   -8.1305   -5.7584   -0.8304 C   0  0  0  1  0  3  0  0  0  0  0  0
   -8.3631   -5.7481    1.5576 C   0  0  0  1  0  3  0  0  0  0  0  0
   -8.8903   -5.9624    0.2831 C   0  0  0  1  0  3  0  0  0  0  0  0
   -1.6016   -0.3664    2.1557 H   0  0  0  1  0  1  0  0  0  0  0  0
   -2.2054    1.0483    1.2577 H   0  0  0  1  0  1  0  0  0  0  0  0
   -0.8736   -2.4220    0.8861 H   0  0  0  1  0  1  0  0  0  0  0  0
   -0.9158   -2.4186   -0.8932 H   0  0  0  1  0  1  0  0  0  0  0  0
   -4.0674   -0.3102    2.2214 H   0  0  0  1  0  1  0  0  0  0  0  0
   -4.1274   -0.2657    0.4423 H   0  0  0  1  0  1  0  0  0  0  0  0
   -1.6629   -0.3812   -2.1237 H   0  0  0  1  0  1  0  0  0  0  0  0
   -3.1958   -0.4089   -1.2195 H   0  0  0  1  0  1  0  0  0  0  0  0
   -4.4910   -2.5689    1.2737 H   0  0  0  1  0  1  0  0  0  0  0  0
   -2.9349   -2.5087    2.1354 H   0  0  0  1  0  1  0  0  0  0  0  0
    0.5123   -0.3556   -0.8948 H   0  0  0  1  0  1  0  0  0  0  0  0
    0.5293   -0.3651    0.8851 H   0  0  0  1  0  1  0  0  0  0  0  0
   -2.2080   -4.3267   -0.9577 H   0  0  0  1  0  1  0  0  0  0  0  0
   -2.4134   -4.4941    0.8025 H   0  0  0  1  0  1  0  0  0  0  0  0
    0.8606    1.8301    0.0037 H   0  0  0  1  0  1  0  0  0  0  0  0
   -0.3633    1.6612   -2.3029 H   0  0  0  1  0  1  0  0  0  0  0  0
   -4.0415    1.5946   -0.1456 H   0  0  0  1  0  1  0  0  0  0  0  0
   -4.0461   -4.5100   -2.4499 H   0  0  0  1  0  1  0  0  0  0  0  0
   -4.0814    4.0562   -0.1348 H   0  0  0  1  0  1  0  0  0  0  0  0
   -2.2591    5.3221   -1.2024 H   0  0  0  1  0  1  0  0  0  0  0  0
   -6.3606   -5.2621   -2.8179 H   0  0  0  1  0  1  0  0  0  0  0  0
   -6.6854   -5.1736    2.7177 H   0  0  0  1  0  1  0  0  0  0  0  0
   -8.5489   -5.9261   -1.8118 H   0  0  0  1  0  1  0  0  0  0  0  0
   -8.9840   -5.9170    2.4249 H   0  0  0  1  0  1  0  0  0  0  0  0
  1 19  1  0  0  0  0
  2 28  1  0  0  0  0
  3 12  1  0  0  0  0
  3 43  1  0  0  0  0
  4  8  1  0  0  0  0
  4 11  1  0  0  0  0
  4 13  1  0  0  0  0
  5 15  2  0  0  0  0
  5 22  1  0  0  0  0
  6  7  1  0  0  0  0
  6  8  1  0  0  0  0
  6 10  1  0  0  0  0
  6 12  1  0  0  0  0
  7  9  1  0  0  0  0
  7 29  1  0  0  0  0
  7 30  1  0  0  0  0
  8 31  1  0  0  0  0
  8 32  1  0  0  0  0
  9 11  1  0  0  0  0
  9 33  1  0  0  0  0
  9 34  1  0  0  0  0
 10 14  1  0  0  0  0
 10 35  1  0  0  0  0
 10 36  1  0  0  0  0
 11 37  1  0  0  0  0
 11 38  1  0  0  0  0
 12 39  1  0  0  0  0
 12 40  1  0  0  0  0
 13 15  1  0  0  0  0
 13 41  1  0  0  0  0
 13 42  1  0  0  0  0
 14 16  2  0  0  0  0
 14 17  1  0  0  0  0
 15 18  1  0  0  0  0
 16 19  1  0  0  0  0
 16 44  1  0  0  0  0
 17 20  2  0  0  0  0
 17 45  1  0  0  0  0
 18 23  2  0  0  0  0
 18 46  1  0  0  0  0
 19 21  2  0  0  0  0
 20 21  1  0  0  0  0
 20 47  1  0  0  0  0
 21 48  1  0  0  0  0
 22 24  2  0  0  0  0
 22 25  1  0  0  0  0
 23 24  1  0  0  0  0
 23 49  1  0  0  0  0
 24 26  1  0  0  0  0
 25 27  2  0  0  0  0
 25 50  1  0  0  0  0
 26 28  2  0  0  0  0
 26 51  1  0  0  0  0
 27 28  1  0  0  0  0
 27 52  1  0  0  0  0
M  END
> <Activity>
6.331

> <Mapped(file=504701.csv.activities,property=Cached(PUBCHEM_COMPOUND_CID))>
6.331

> <PUBCHEM_ATOM_DEF_STEREO_COUNT>
0

> <PUBCHEM_ATOM_UDEF_STEREO_COUNT>
1

> <PUBCHEM_BONDANNOTATIONS>
14  16  8
14  17  8
15  18  8
16  19  8
17  20  8
18  23  8
19  21  8
20  21  8
22  24  8
22  25  8
23  24  8
24  26  8
25  27  8
26  28  8
27  28  8
5  15  8
5  22  8
6  10  3

> <PUBCHEM_BOND_DEF_STEREO_COUNT>
0

> <PUBCHEM_BOND_UDEF_STEREO_COUNT>
0

> <PUBCHEM_CACTVS_COMPLEXITY>
509

> <PUBCHEM_CACTVS_HBOND_ACCEPTOR>
4

> <PUBCHEM_CACTVS_HBOND_DONOR>
1

> <PUBCHEM_CACTVS_ROTATABLE_BOND>
5

> <PUBCHEM_CACTVS_SUBSKEYS>
AAADceB7IQAEAAAAAAAAAAAAAAAAAAAAAAA8eIEAAAAAAACx9AAAHwIACAAADgrhni4wwPMIEgCgAyRiRACCgCAhByAImCA4ZpgIcOLBk5GUYAhmgADIyAeQ0OIPAAAAIAACAAAAAABAAAQAAAAAAAAAAA==

> <PUBCHEM_CACTVS_TAUTO_COUNT>
1

> <PUBCHEM_CACTVS_TPSA>
36.4

> <PUBCHEM_COMPONENT_COUNT>
1

> <PUBCHEM_COMPOUND_CANONICALIZED>
1

> <PUBCHEM_COMPOUND_CID>
16188789

> <PUBCHEM_COORDINATE_TYPE>
1
5
255

> <PUBCHEM_EXACT_MASS>
398.156119

> <PUBCHEM_HEAVY_ATOM_COUNT>
28

> <PUBCHEM_ISOTOPIC_ATOM_COUNT>
0

> <PUBCHEM_IUPAC_CAS_NAME>
[3-[(3-chlorophenyl)methyl]-1-[(6-fluoro-2-quinolinyl)methyl]-3-piperidinyl]methanol

> <PUBCHEM_IUPAC_INCHI>
InChI=1S/C23H24ClFN2O/c24-19-4-1-3-17(11-19)13-23(16-28)9-2-10-27(15-23)14-21-7-5-18-12-20(25)6-8-22(18)26-21/h1,3-8,11-12,28H,2,9-10,13-16H2

> <PUBCHEM_IUPAC_INCHIKEY>
JJNLXONZPYBNTJ-UHFFFAOYSA-N

> <PUBCHEM_IUPAC_NAME>
[3-[(3-chlorophenyl)methyl]-1-[(6-fluoroquinolin-2-yl)methyl]piperidin-3-yl]methanol

> <PUBCHEM_IUPAC_OPENEYE_NAME>
[3-[(3-chlorophenyl)methyl]-1-[(6-fluoro-2-quinolyl)methyl]-3-piperidyl]methanol

> <PUBCHEM_IUPAC_SYSTEMATIC_NAME>
[3-[(3-chlorophenyl)methyl]-1-[(6-fluoranylquinolin-2-yl)methyl]piperidin-3-yl]methanol

> <PUBCHEM_IUPAC_TRADITIONAL_NAME>
[3-(3-chlorobenzyl)-1-[(6-fluoro-2-quinolyl)methyl]-3-piperidyl]methanol

> <PUBCHEM_MOLECULAR_FORMULA>
C23H24ClFN2O

> <PUBCHEM_MOLECULAR_WEIGHT>
398.900863

> <PUBCHEM_MONOISOTOPIC_WEIGHT>
398.156119

> <PUBCHEM_OPENEYE_CAN_SMILES>
C1CC(CN(C1)CC2=NC3=C(C=C2)C=C(C=C3)F)(CC4=CC(=CC=C4)Cl)CO

> <PUBCHEM_OPENEYE_ISO_SMILES>
C1CC(CN(C1)CC2=NC3=C(C=C2)C=C(C=C3)F)(CC4=CC(=CC=C4)Cl)CO

> <PUBCHEM_TOTAL_CHARGE>
0

> <PUBCHEM_XLOGP3_AA>
4.7

$$$$
Written by BCL::WriteToMDL,831984
MBcorina  10171218483D 1   1.00000     0.00000 
CORINA 3.49 0026  01.06.2011
 30 33  0  0  0  0  0  0  0  0999 V2000
   -0.0162    1.3424    0.0094 O   0  0  0  1  0  2  0  0  0  0  0  0
   -2.3905   -4.4212    0.0010 N   0  0  0  1  0  3  0  0  0  0  0  0
   -4.3615   -3.4853    0.0251 N   0  0  0  1  0  2  0  0  0  0  0  0
    1.2383   -0.4359   -0.0121 N   0  0  0  1  0  2  0  0  0  0  0  0
   -2.1837   -3.0552    0.0065 C   0  0  0  1  0  3  0  0  0  0  0  0
   -1.1962   -0.8671    0.0088 C   0  0  0  1  0  3  0  0  0  0  0  0
   -3.4625   -2.4694    0.0221 C   0  0  0  1  0  3  0  0  0  0  0  0
   -1.0549   -2.2530    0.0000 C   0  0  0  1  0  3  0  0  0  0  0  0
    0.0021   -0.0041    0.0020 C   0  0  0  1  0  3  0  0  0  0  0  0
   -2.4732   -0.2905    0.0251 C   0  0  0  1  0  3  0  0  0  0  0  0
   -3.5868   -1.0753    0.0313 C   0  0  0  1  0  3  0  0  0  0  0  0
   -3.7345   -4.6260    0.0128 C   0  0  0  1  0  3  0  0  0  0  0  0
    1.2626    1.7804   -0.0004 C   0  0  0  1  0  3  0  0  0  0  0  0
    2.0743    0.6340   -0.0143 C   0  0  0  1  0  3  0  0  0  0  0  0
   -4.4016   -5.9773    0.0113 C   0  0  0  1  0  4  0  0  0  0  0  0
    1.8458    3.0374    0.0011 C   0  0  0  1  0  3  0  0  0  0  0  0
    3.4642    0.7718   -0.0273 C   0  0  0  1  0  3  0  0  0  0  0  0
    3.2205    3.1581   -0.0109 C   0  0  0  1  0  3  0  0  0  0  0  0
    4.0259    2.0292   -0.0263 C   0  0  0  1  0  3  0  0  0  0  0  0
   -0.0713   -2.6989   -0.0114 H   0  0  0  1  0  1  0  0  0  0  0  0
   -1.7044   -5.1068   -0.0130 H   0  0  0  1  0  1  0  0  0  0  0  0
   -2.5755    0.7847    0.0320 H   0  0  0  1  0  1  0  0  0  0  0  0
   -4.5666   -0.6212    0.0429 H   0  0  0  1  0  1  0  0  0  0  0  0
   -4.5524   -6.3092    1.0385 H   0  0  0  1  0  1  0  0  0  0  0  0
   -5.3654   -5.9062   -0.4928 H   0  0  0  1  0  1  0  0  0  0  0  0
   -3.7694   -6.6940   -0.5129 H   0  0  0  1  0  1  0  0  0  0  0  0
    1.2254    3.9214    0.0115 H   0  0  0  1  0  1  0  0  0  0  0  0
    4.0959   -0.1042   -0.0377 H   0  0  0  1  0  1  0  0  0  0  0  0
    3.6725    4.1389   -0.0100 H   0  0  0  1  0  1  0  0  0  0  0  0
    5.1004    2.1369   -0.0363 H   0  0  0  1  0  1  0  0  0  0  0  0
  1  9  1  0  0  0  0
  1 13  1  0  0  0  0
  2  5  1  0  0  0  0
  2 12  1  0  0  0  0
  2 21  1  0  0  0  0
  3  7  1  0  0  0  0
  3 12  2  0  0  0  0
  4  9  2  0  0  0  0
  4 14  1  0  0  0  0
  5  7  2  0  0  0  0
  5  8  1  0  0  0  0
  6  8  2  0  0  0  0
  6  9  1  0  0  0  0
  6 10  1  0  0  0  0
  7 11  1  0  0  0  0
  8 20  1  0  0  0  0
 10 11  2  0  0  0  0
 10 22  1  0  0  0  0
 11 23  1  0  0  0  0
 12 15  1  0  0  0  0
 13 14  1  0  0  0  0
 13 16  2  0  0  0  0
 14 17  2  0  0  0  0
 15 24  1  0  0  0  0
 15 25  1  0  0  0  0
 15 26  1  0  0  0  0
 16 18  1  0  0  0  0
 16 27  1  0  0  0  0
 17 19  1  0  0  0  0
 17 28  1  0  0  0  0
 18 19  2  0  0  0  0
 18 29  1  0  0  0  0
 19 30  1  0  0  0  0
M  END
> <Activity>
1.056

> <Mapped(file=504701.csv.activities,property=Cached(PUBCHEM_COMPOUND_CID))>
1.056

> <PUBCHEM_ATOM_DEF_STEREO_COUNT>
0

> <PUBCHEM_ATOM_UDEF_STEREO_COUNT>
0

> <PUBCHEM_BONDANNOTATIONS>
1  13  8
1  9  8
10  11  8
13  14  8
13  16  8
14  17  8
16  18  8
17  19  8
18  19  8
2  12  8
2  5  8
3  12  8
3  7  8
4  14  8
4  9  8
5  7  8
5  8  8
6  10  8
6  8  8
7  11  8

> <PUBCHEM_BOND_DEF_STEREO_COUNT>
0

> <PUBCHEM_BOND_UDEF_STEREO_COUNT>
0

> <PUBCHEM_CACTVS_COMPLEXITY>
337

> <PUBCHEM_CACTVS_HBOND_ACCEPTOR>
1

> <PUBCHEM_CACTVS_HBOND_DONOR>
1

> <PUBCHEM_CACTVS_ROTATABLE_BOND>
1

> <PUBCHEM_CACTVS_SUBSKEYS>
AAADccBzIAAAAAAAAAAAAAAAAAAAAWLAAAAwYAAAAAAAAFgB/gAAHgAQAAAADAyBnwAz1rbJlECoA6dydASCiC2vcqAJmSG3fNiObrLEvbufOSjs1BPY6ae82SOeCAAAQAAAECAQAACAAAAgQAAAAAAAAA==

> <PUBCHEM_CACTVS_TAUTO_COUNT>
4

> <PUBCHEM_CACTVS_TPSA>
54.7

> <PUBCHEM_COMPONENT_COUNT>
1

> <PUBCHEM_COMPOUND_CANONICALIZED>
1

> <PUBCHEM_COMPOUND_CID>
831984

> <PUBCHEM_COORDINATE_TYPE>
1
5
255

> <PUBCHEM_EXACT_MASS>
249.090212

> <PUBCHEM_HEAVY_ATOM_COUNT>
19

> <PUBCHEM_ISOTOPIC_ATOM_COUNT>
0

> <PUBCHEM_IUPAC_CAS_NAME>
2-(2-methyl-3H-benzimidazol-5-yl)-1,3-benzoxazole

> <PUBCHEM_IUPAC_INCHI>
InChI=1S/C15H11N3O/c1-9-16-11-7-6-10(8-13(11)17-9)15-18-12-4-2-3-5-14(12)19-15/h2-8H,1H3,(H,16,17)

> <PUBCHEM_IUPAC_INCHIKEY>
FAUHDDWHOPTTHL-UHFFFAOYSA-N

> <PUBCHEM_IUPAC_NAME>
2-(2-methyl-3H-benzimidazol-5-yl)-1,3-benzoxazole

> <PUBCHEM_IUPAC_OPENEYE_NAME>
2-(2-methyl-3H-benzimidazol-5-yl)-1,3-benzoxazole

> <PUBCHEM_IUPAC_SYSTEMATIC_NAME>
2-(2-methyl-3H-benzimidazol-5-yl)-1,3-benzoxazole

> <PUBCHEM_IUPAC_TRADITIONAL_NAME>
2-(2-methyl-3H-benzimidazol-5-yl)-1,3-benzoxazole

> <PUBCHEM_MOLECULAR_FORMULA>
C15H11N3O

> <PUBCHEM_MOLECULAR_WEIGHT>
249.26734

> <PUBCHEM_MONOISOTOPIC_WEIGHT>
249.090212

> <PUBCHEM_OPENEYE_CAN_SMILES>
CC1=NC2=C(N1)C=C(C=C2)C3=NC4=CC=CC=C4O3

> <PUBCHEM_OPENEYE_ISO_SMILES>
CC1=NC2=C(N1)C=C(C=C2)C3=NC4=CC=CC=C4O3

> <PUBCHEM_TOTAL_CHARGE>
0

> <PUBCHEM_XLOGP3_AA>
3.4

$$$$
Written by BCL::WriteToMDL,665848
MBcorina  10171218483D 1   1.00000     0.00000 
CORINA 3.49 0026  01.06.2011
 34 35  0  0  0  0  0  0  0  0999 V2000
   -0.1327    2.0529    0.5658 S   0  0  0  1  0  2  0  0  0  0  0  0
    2.2987    3.9201    0.7378 S   0  0  0  1  0  1  0  0  0  0  0  0
   -0.9049   -1.4139   -1.1819 O   0  0  0  1  0  1  0  0  0  0  0  0
   -6.3294    0.8715    0.4558 O   0  0  0  1  0  2  0  0  0  0  0  0
   -4.1939    1.4331    0.2216 O   0  0  0  1  0  1  0  0  0  0  0  0
    1.9958    1.5302   -0.5564 N   0  0  0  1  0  3  0  0  0  0  0  0
   -2.3007   -0.2098    0.0613 N   0  0  0  1  0  3  0  0  0  0  0  0
    1.6263   -0.5581   -1.6463 N   0  0  0  1  0  3  0  0  0  0  0  0
    1.1947    0.4895   -0.8636 C   0  0  0  1  0  3  0  0  0  0  0  0
   -0.0693    0.5375   -0.3520 C   0  0  0  1  0  3  0  0  0  0  0  0
   -3.2785   -1.1972   -0.0030 C   0  0  0  1  0  3  0  0  0  0  0  0
   -1.1001   -0.4116   -0.5168 C   0  0  0  1  0  3  0  0  0  0  0  0
   -4.6363   -0.8529    0.0912 C   0  0  0  1  0  3  0  0  0  0  0  0
    1.4903    2.5056    0.2119 C   0  0  0  1  0  3  0  0  0  0  0  0
    3.3750    1.5925   -1.0465 C   0  0  0  1  0  4  0  0  0  0  0  0
   -2.9169   -2.5278   -0.1664 C   0  0  0  1  0  3  0  0  0  0  0  0
   -5.6082   -1.8546    0.0246 C   0  0  0  1  0  3  0  0  0  0  0  0
   -3.8888   -3.5058   -0.2309 C   0  0  0  1  0  3  0  0  0  0  0  0
   -5.2295   -3.1702   -0.1326 C   0  0  0  1  0  3  0  0  0  0  0  0
   -5.0340    0.5559    0.2596 C   0  0  0  1  0  3  0  0  0  0  0  0
   -6.6482    2.2792    0.6138 C   0  0  0  1  0  4  0  0  0  0  0  0
   -2.4830    0.6240    0.5222 H   0  0  0  1  0  1  0  0  0  0  0  0
    3.3958    2.1035   -2.0091 H   0  0  0  1  0  1  0  0  0  0  0  0
    3.9903    2.1389   -0.3317 H   0  0  0  1  0  1  0  0  0  0  0  0
    3.7650    0.5814   -1.1634 H   0  0  0  1  0  1  0  0  0  0  0  0
   -1.8740   -2.7978   -0.2435 H   0  0  0  1  0  1  0  0  0  0  0  0
   -6.6548   -1.5981    0.0966 H   0  0  0  1  0  1  0  0  0  0  0  0
   -3.6024   -4.5393   -0.3584 H   0  0  0  1  0  1  0  0  0  0  0  0
    2.5315   -0.5622   -1.9949 H   0  0  0  1  0  1  0  0  0  0  0  0
    1.0252   -1.2919   -1.8490 H   0  0  0  1  0  1  0  0  0  0  0  0
   -5.9820   -3.9433   -0.1838 H   0  0  0  1  0  1  0  0  0  0  0  0
   -6.1157    2.6777    1.4773 H   0  0  0  1  0  1  0  0  0  0  0  0
   -6.3467    2.8228   -0.2816 H   0  0  0  1  0  1  0  0  0  0  0  0
   -7.7217    2.3940    0.7642 H   0  0  0  1  0  1  0  0  0  0  0  0
  1 10  1  0  0  0  0
  1 14  1  0  0  0  0
  2 14  2  0  0  0  0
  3 12  2  0  0  0  0
  4 20  1  0  0  0  0
  4 21  1  0  0  0  0
  5 20  2  0  0  0  0
  6  9  1  0  0  0  0
  6 14  1  0  0  0  0
  6 15  1  0  0  0  0
  7 11  1  0  0  0  0
  7 12  1  0  0  0  0
  7 22  1  0  0  0  0
  8  9  1  0  0  0  0
  8 29  1  0  0  0  0
  8 30  1  0  0  0  0
  9 10  2  0  0  0  0
 10 12  1  0  0  0  0
 11 13  1  0  0  0  0
 11 16  2  0  0  0  0
 13 17  2  0  0  0  0
 13 20  1  0  0  0  0
 15 23  1  0  0  0  0
 15 24  1  0  0  0  0
 15 25  1  0  0  0  0
 16 18  1  0  0  0  0
 16 26  1  0  0  0  0
 17 19  1  0  0  0  0
 17 27  1  0  0  0  0
 18 19  2  0  0  0  0
 18 28  1  0  0  0  0
 19 31  1  0  0  0  0
 21 32  1  0  0  0  0
 21 33  1  0  0  0  0
 21 34  1  0  0  0  0
M  END
> <Activity>
0.40683

> <Mapped(file=504701.csv.activities,property=Cached(PUBCHEM_COMPOUND_CID))>
0.40683

> <PUBCHEM_ATOM_DEF_STEREO_COUNT>
0

> <PUBCHEM_ATOM_UDEF_STEREO_COUNT>
0

> <PUBCHEM_BONDANNOTATIONS>
1  10  8
1  14  8
11  13  8
11  16  8
13  17  8
16  18  8
17  19  8
18  19  8
6  14  8
6  9  8
9  10  8

> <PUBCHEM_BOND_DEF_STEREO_COUNT>
0

> <PUBCHEM_BOND_UDEF_STEREO_COUNT>
0

> <PUBCHEM_CACTVS_COMPLEXITY>
507

> <PUBCHEM_CACTVS_HBOND_ACCEPTOR>
6

> <PUBCHEM_CACTVS_HBOND_DONOR>
2

> <PUBCHEM_CACTVS_ROTATABLE_BOND>
4

> <PUBCHEM_CACTVS_SUBSKEYS>
AAADccBzMABgAAAAAAAAAAAAAAAAAQAAAAAwAAAAAAAAAAABAAAAHgQQAAAADAiB2AYzyIPABAiMAiXSWACCAABlAhgIiAEIbMiIJjrAtZmEMYhm1AHI6ceYyCCOAAAAAAACAAAAAAAAAAQAAAAAAAAAAA==

> <PUBCHEM_CACTVS_TAUTO_COUNT>
14

> <PUBCHEM_CACTVS_TPSA>
142

> <PUBCHEM_COMPONENT_COUNT>
1

> <PUBCHEM_COMPOUND_CANONICALIZED>
1

> <PUBCHEM_COMPOUND_CID>
665848

> <PUBCHEM_COORDINATE_TYPE>
1
5
255

> <PUBCHEM_EXACT_MASS>
323.039833

> <PUBCHEM_HEAVY_ATOM_COUNT>
21

> <PUBCHEM_ISOTOPIC_ATOM_COUNT>
0

> <PUBCHEM_IUPAC_CAS_NAME>
2-[[(4-amino-3-methyl-2-sulfanylidene-5-thiazolyl)-oxomethyl]amino]benzoic acid methyl ester

> <PUBCHEM_IUPAC_INCHI>
InChI=1S/C13H13N3O3S2/c1-16-10(14)9(21-13(16)20)11(17)15-8-6-4-3-5-7(8)12(18)19-2/h3-6H,14H2,1-2H3,(H,15,17)

> <PUBCHEM_IUPAC_INCHIKEY>
BGIZQPMUHKCJQO-UHFFFAOYSA-N

> <PUBCHEM_IUPAC_NAME>
methyl 2-[(4-amino-3-methyl-2-sulfanylidene-1,3-thiazole-5-carbonyl)amino]benzoate

> <PUBCHEM_IUPAC_OPENEYE_NAME>
methyl 2-[(4-amino-3-methyl-2-thioxo-thiazole-5-carbonyl)amino]benzoate

> <PUBCHEM_IUPAC_SYSTEMATIC_NAME>
methyl 2-[(4-azanyl-3-methyl-2-sulfanylidene-1,3-thiazol-5-yl)carbonylamino]benzoate

> <PUBCHEM_IUPAC_TRADITIONAL_NAME>
2-[(4-amino-3-methyl-2-thioxo-4-thiazoline-5-carbonyl)amino]benzoic acid methyl ester

> <PUBCHEM_MOLECULAR_FORMULA>
C13H13N3O3S2

> <PUBCHEM_MOLECULAR_WEIGHT>
323.39062

> <PUBCHEM_MONOISOTOPIC_WEIGHT>
323.039833

> <PUBCHEM_OPENEYE_CAN_SMILES>
CN1C(=C(SC1=S)C(=O)NC2=CC=CC=C2C(=O)OC)N

> <PUBCHEM_OPENEYE_ISO_SMILES>
CN1C(=C(SC1=S)C(=O)NC2=CC=CC=C2C(=O)OC)N

> <PUBCHEM_TOTAL_CHARGE>
0

> <PUBCHEM_XLOGP3_AA>
2.6

$$$$
Written by BCL::WriteToMDL,3155707
MBcorina  10171218483D 1   1.00000     0.00000 
CORINA 3.49 0026  01.06.2011
 29 32  0  0  0  0  0  0  0  0999 V2000
    0.9764   -4.4155   -0.0303 Cl  0  0  0  1  0  1  0  0  0  0  0  0
   -0.0167    1.3820    0.0096 N   0  0  0  1  0  3  0  0  0  0  0  0
    3.4734    0.9843   -0.0259 N   0  0  0  1  0  2  0  0  0  0  0  0
    1.7355    3.1166    0.0023 N   0  0  0  1  0  2  0  0  0  0  0  0
    0.0021   -0.0041    0.0020 C   0  0  0  1  0  3  0  0  0  0  0  0
    1.3371   -0.4331   -0.0131 C   0  0  0  1  0  3  0  0  0  0  0  0
    2.1696    0.7850   -0.0145 C   0  0  0  1  0  3  0  0  0  0  0  0
    1.2690    1.8813    0.0000 C   0  0  0  1  0  3  0  0  0  0  0  0
   -1.0166   -0.9514    0.0071 C   0  0  0  1  0  3  0  0  0  0  0  0
    1.6346   -1.7939   -0.0228 C   0  0  0  1  0  3  0  0  0  0  0  0
   -1.2312    2.2013    0.0201 C   0  0  0  1  0  4  0  0  0  0  0  0
    3.9522    2.2317   -0.0237 C   0  0  0  1  0  3  0  0  0  0  0  0
    3.0554    3.3312   -0.0092 C   0  0  0  1  0  3  0  0  0  0  0  0
   -0.7103   -2.2957   -0.0027 C   0  0  0  1  0  3  0  0  0  0  0  0
    0.6106   -2.7185   -0.0176 C   0  0  0  1  0  3  0  0  0  0  0  0
    5.3380    2.4727   -0.0357 C   0  0  0  1  0  3  0  0  0  0  0  0
    3.5727    4.6387   -0.0065 C   0  0  0  1  0  3  0  0  0  0  0  0
    5.8004    3.7525   -0.0331 C   0  0  0  1  0  3  0  0  0  0  0  0
    4.9196    4.8326   -0.0179 C   0  0  0  1  0  3  0  0  0  0  0  0
   -2.0487   -0.6335    0.0191 H   0  0  0  1  0  1  0  0  0  0  0  0
    2.6629   -2.1239   -0.0348 H   0  0  0  1  0  1  0  0  0  0  0  0
   -1.5274    2.3988    1.0503 H   0  0  0  1  0  1  0  0  0  0  0  0
   -1.0373    3.1450   -0.4896 H   0  0  0  1  0  1  0  0  0  0  0  0
   -2.0326    1.6694   -0.4927 H   0  0  0  1  0  1  0  0  0  0  0  0
   -1.5060   -3.0260    0.0017 H   0  0  0  1  0  1  0  0  0  0  0  0
    6.0321    1.6454   -0.0465 H   0  0  0  1  0  1  0  0  0  0  0  0
    2.9033    5.4861    0.0041 H   0  0  0  1  0  1  0  0  0  0  0  0
    6.8650    3.9338   -0.0420 H   0  0  0  1  0  1  0  0  0  0  0  0
    5.3120    5.8388   -0.0162 H   0  0  0  1  0  1  0  0  0  0  0  0
  1 15  1  0  0  0  0
  2  5  1  0  0  0  0
  2  8  1  0  0  0  0
  2 11  1  0  0  0  0
  3  7  2  0  0  0  0
  3 12  1  0  0  0  0
  4  8  2  0  0  0  0
  4 13  1  0  0  0  0
  5  6  2  0  0  0  0
  5  9  1  0  0  0  0
  6  7  1  0  0  0  0
  6 10  1  0  0  0  0
  7  8  1  0  0  0  0
  9 14  2  0  0  0  0
  9 20  1  0  0  0  0
 10 15  2  0  0  0  0
 10 21  1  0  0  0  0
 11 22  1  0  0  0  0
 11 23  1  0  0  0  0
 11 24  1  0  0  0  0
 12 13  1  0  0  0  0
 12 16  2  0  0  0  0
 13 17  2  0  0  0  0
 14 15  1  0  0  0  0
 14 25  1  0  0  0  0
 16 18  1  0  0  0  0
 16 26  1  0  0  0  0
 17 19  1  0  0  0  0
 17 27  1  0  0  0  0
 18 19  2  0  0  0  0
 18 28  1  0  0  0  0
 19 29  1  0  0  0  0
M  END
> <Activity>
1.126

> <Mapped(file=504701.csv.activities,property=Cached(PUBCHEM_COMPOUND_CID))>
1.126

> <PUBCHEM_ATOM_DEF_STEREO_COUNT>
0

> <PUBCHEM_ATOM_UDEF_STEREO_COUNT>
0

> <PUBCHEM_BONDANNOTATIONS>
10  15  8
12  13  8
12  16  8
13  17  8
14  15  8
16  18  8
17  19  8
18  19  8
2  5  8
2  8  8
3  12  8
3  7  8
4  13  8
4  8  8
5  6  8
5  9  8
6  10  8
6  7  8
7  8  8
9  14  8

> <PUBCHEM_BOND_DEF_STEREO_COUNT>
0

> <PUBCHEM_BOND_UDEF_STEREO_COUNT>
0

> <PUBCHEM_CACTVS_COMPLEXITY>
350

> <PUBCHEM_CACTVS_HBOND_ACCEPTOR>
1

> <PUBCHEM_CACTVS_HBOND_DONOR>
0

> <PUBCHEM_CACTVS_ROTATABLE_BOND>
0

> <PUBCHEM_CACTVS_SUBSKEYS>
AAADccBzAAAEAAAAAAAAAAAAAAAAAWAAAAA8YIAAAAAAAFix/gAAHAIAAAAADAqBHyQz8P8MEACgAyZiZACCgC0hF6AJ2CA4dpiIaOLB29GUJAhogALIyCcQgIAOAABAIAACACAAAIBAAAQAQAAAAAAAAA==

> <PUBCHEM_CACTVS_TAUTO_COUNT>
1

> <PUBCHEM_CACTVS_TPSA>
30.7

> <PUBCHEM_COMPONENT_COUNT>
1

> <PUBCHEM_COMPOUND_CANONICALIZED>
1

> <PUBCHEM_COMPOUND_CID>
3155707

> <PUBCHEM_COORDINATE_TYPE>
1
5
255

> <PUBCHEM_EXACT_MASS>
267.056325

> <PUBCHEM_HEAVY_ATOM_COUNT>
19

> <PUBCHEM_ISOTOPIC_ATOM_COUNT>
0

> <PUBCHEM_IUPAC_CAS_NAME>
9-chloro-6-methylindolo[3,2-b]quinoxaline

> <PUBCHEM_IUPAC_INCHI>
InChI=1S/C15H10ClN3/c1-19-13-7-6-9(16)8-10(13)14-15(19)18-12-5-3-2-4-11(12)17-14/h2-8H,1H3

> <PUBCHEM_IUPAC_INCHIKEY>
NXJNINUNSFIGJN-UHFFFAOYSA-N

> <PUBCHEM_IUPAC_NAME>
9-chloro-6-methylindolo[3,2-b]quinoxaline

> <PUBCHEM_IUPAC_OPENEYE_NAME>
9-chloro-6-methyl-indolo[3,2-b]quinoxaline

> <PUBCHEM_IUPAC_SYSTEMATIC_NAME>
9-chloranyl-6-methyl-indolo[3,2-b]quinoxaline

> <PUBCHEM_IUPAC_TRADITIONAL_NAME>
9-chloro-6-methyl-indolo[3,2-b]quinoxaline

> <PUBCHEM_MOLECULAR_FORMULA>
C15H10ClN3

> <PUBCHEM_MOLECULAR_WEIGHT>
267.713

> <PUBCHEM_MONOISOTOPIC_WEIGHT>
267.056325

> <PUBCHEM_OPENEYE_CAN_SMILES>
CN1C2=C(C=C(C=C2)Cl)C3=NC4=CC=CC=C4N=C31

> <PUBCHEM_OPENEYE_ISO_SMILES>
CN1C2=C(C=C(C=C2)Cl)C3=NC4=CC=CC=C4N=C31

> <PUBCHEM_TOTAL_CHARGE>
0

> <PUBCHEM_XLOGP3_AA>
3.4

$$$$
Written by BCL::WriteToMDL,5753096
MBcorina  10171218483D 1   1.00000     0.00000 
CORINA 3.49 0026  01.06.2011
 44 46  0  0  0  0  0  0  0  0999 V2000
   -0.0159    1.3476    0.3831 O   0  0  0  1  0  2  0  0  0  0  0  0
   -1.7414  -11.1586    0.1670 O   0  0  0  1  0  1  0  0  0  0  0  0
   -2.2845   -0.1508    0.3061 O   0  0  0  1  0  1  0  0  0  0  0  0
   -3.2032   -9.1298   -0.0624 N   0  0  0  1  0  3  0  0  0  0  0  0
   -2.1684   -7.0371    0.0282 N   0  0  0  1  0  2  0  0  0  0  0  0
   -3.4247   -5.0597    0.1000 N   0  0  0  1  0  3  0  0  0  0  0  0
   -2.2500   -4.2972    0.1389 N   0  0  0  1  0  3  0  0  0  0  0  0
   -2.0837   -8.3568   -0.0244 C   0  0  0  1  0  3  0  0  0  0  0  0
   -4.4335   -8.5522   -0.0477 C   0  0  0  1  0  3  0  0  0  0  0  0
   -0.7613   -8.9970   -0.0409 C   0  0  0  1  0  3  0  0  0  0  0  0
   -3.3522   -6.4316    0.0448 C   0  0  0  1  0  3  0  0  0  0  0  0
   -4.5300   -7.1996    0.0061 C   0  0  0  1  0  3  0  0  0  0  0  0
   -5.6760   -9.4040   -0.0902 C   0  0  0  1  0  4  0  0  0  0  0  0
   -0.6486  -10.4023    0.0577 C   0  0  0  1  0  3  0  0  0  0  0  0
    0.3963   -8.2213   -0.1602 C   0  0  0  1  0  3  0  0  0  0  0  0
   -1.1498   -2.1982    0.2315 C   0  0  0  1  0  3  0  0  0  0  0  0
   -2.3207   -2.9583    0.1927 C   0  0  0  1  0  3  0  0  0  0  0  0
    0.6206  -10.9936    0.0401 C   0  0  0  1  0  3  0  0  0  0  0  0
    1.6318   -8.8268   -0.1756 C   0  0  0  1  0  3  0  0  0  0  0  0
   -1.2086   -0.7333    0.2905 C   0  0  0  1  0  3  0  0  0  0  0  0
    0.1182   -2.8237    0.2201 C   0  0  0  1  0  3  0  0  0  0  0  0
    0.0025   -0.0116    0.3285 C   0  0  0  1  0  3  0  0  0  0  0  0
    1.7436  -10.2073   -0.0725 C   0  0  0  1  0  3  0  0  0  0  0  0
    1.2467   -2.0691    0.2592 C   0  0  0  1  0  3  0  0  0  0  0  0
    1.1920   -0.6783    0.3100 C   0  0  0  1  0  3  0  0  0  0  0  0
    1.2485    2.0126    0.4192 C   0  0  0  1  0  4  0  0  0  0  0  0
   -3.1229  -10.0956   -0.1045 H   0  0  0  1  0  1  0  0  0  0  0  0
   -5.4974   -6.7197    0.0187 H   0  0  0  1  0  1  0  0  0  0  0  0
   -5.9825   -9.6504    0.9264 H   0  0  0  1  0  1  0  0  0  0  0  0
   -6.4756   -8.8555   -0.5880 H   0  0  0  1  0  1  0  0  0  0  0  0
   -5.4684  -10.3222   -0.6397 H   0  0  0  1  0  1  0  0  0  0  0  0
   -4.2891   -4.6198    0.1120 H   0  0  0  1  0  1  0  0  0  0  0  0
    0.3204   -7.1470   -0.2407 H   0  0  0  1  0  1  0  0  0  0  0  0
   -1.3856   -4.7371    0.1268 H   0  0  0  1  0  1  0  0  0  0  0  0
   -3.2832   -2.4685    0.2061 H   0  0  0  1  0  1  0  0  0  0  0  0
    0.7178  -12.0666    0.1152 H   0  0  0  1  0  1  0  0  0  0  0  0
    2.5226   -8.2232   -0.2686 H   0  0  0  1  0  1  0  0  0  0  0  0
    0.1893   -3.9007    0.1811 H   0  0  0  1  0  1  0  0  0  0  0  0
    2.7204  -10.6677   -0.0856 H   0  0  0  1  0  1  0  0  0  0  0  0
    2.2091   -2.5590    0.2500 H   0  0  0  1  0  1  0  0  0  0  0  0
    2.1130   -0.1149    0.3394 H   0  0  0  1  0  1  0  0  0  0  0  0
    1.8028    1.6915    1.3011 H   0  0  0  1  0  1  0  0  0  0  0  0
    1.8159    1.7631   -0.4774 H   0  0  0  1  0  1  0  0  0  0  0  0
    1.0911    3.0903    0.4614 H   0  0  0  1  0  1  0  0  0  0  0  0
  1 22  1  0  0  0  0
  1 26  1  0  0  0  0
  2 14  2  0  0  0  0
  3 20  2  0  0  0  0
  4  8  1  0  0  0  0
  4  9  1  0  0  0  0
  4 27  1  0  0  0  0
  5  8  1  0  0  0  0
  5 11  2  0  0  0  0
  6  7  1  0  0  0  0
  6 11  1  0  0  0  0
  6 32  1  0  0  0  0
  7 17  1  0  0  0  0
  7 34  1  0  0  0  0
  8 10  2  0  0  0  0
  9 12  2  0  0  0  0
  9 13  1  0  0  0  0
 10 14  1  0  0  0  0
 10 15  1  0  0  0  0
 11 12  1  0  0  0  0
 12 28  1  0  0  0  0
 13 29  1  0  0  0  0
 13 30  1  0  0  0  0
 13 31  1  0  0  0  0
 14 18  1  0  0  0  0
 15 19  2  0  0  0  0
 15 33  1  0  0  0  0
 16 17  2  0  0  0  0
 16 20  1  0  0  0  0
 16 21  1  0  0  0  0
 17 35  1  0  0  0  0
 18 23  2  0  0  0  0
 18 36  1  0  0  0  0
 19 23  1  0  0  0  0
 19 37  1  0  0  0  0
 20 22  1  0  0  0  0
 21 24  2  0  0  0  0
 21 38  1  0  0  0  0
 22 25  2  0  0  0  0
 23 39  1  0  0  0  0
 24 25  1  0  0  0  0
 24 40  1  0  0  0  0
 25 41  1  0  0  0  0
 26 42  1  0  0  0  0
 26 43  1  0  0  0  0
 26 44  1  0  0  0  0
M  END
> <Activity>
2.912

> <Mapped(file=504701.csv.activities,property=Cached(PUBCHEM_COMPOUND_CID))>
2.912

> <PUBCHEM_ATOM_DEF_STEREO_COUNT>
0

> <PUBCHEM_ATOM_UDEF_STEREO_COUNT>
0

> <PUBCHEM_BOND_DEF_STEREO_COUNT>
2

> <PUBCHEM_BOND_UDEF_STEREO_COUNT>
0

> <PUBCHEM_CACTVS_COMPLEXITY>
896

> <PUBCHEM_CACTVS_HBOND_ACCEPTOR>
6

> <PUBCHEM_CACTVS_HBOND_DONOR>
3

> <PUBCHEM_CACTVS_ROTATABLE_BOND>
4

> <PUBCHEM_CACTVS_SUBSKEYS>
AAADceB7sAAAAAAAAAAAAAAAAAAAAAAAAAAgQIAAAAAAAAAAAAAAHgAYAAAADAzBgAYDAALiBACoAqZ2ZAKACAEgIgIYKIFQAFiIAAAAAQQAAAAE0AIIgcIAAAAAAAAAAAAAAAAAAAAAAAAAAAAAAAAAAA==

> <PUBCHEM_CACTVS_TAUTO_COUNT>
56

> <PUBCHEM_CACTVS_TPSA>
91.8

> <PUBCHEM_COMPONENT_COUNT>
1

> <PUBCHEM_COMPOUND_CANONICALIZED>
1

> <PUBCHEM_COMPOUND_CID>
5753096

> <PUBCHEM_COORDINATE_TYPE>
1
5
255

> <PUBCHEM_EXACT_MASS>
350.13789

> <PUBCHEM_HEAVY_ATOM_COUNT>
26

> <PUBCHEM_ISOTOPIC_ATOM_COUNT>
0

> <PUBCHEM_IUPAC_CAS_NAME>
(6E)-2-methoxy-6-[[[(2E)-6-methyl-2-(6-oxo-1-cyclohexa-2,4-dienylidene)-1H-pyrimidin-4-yl]hydrazo]methylidene]-1-cyclohexa-2,4-dienone

> <PUBCHEM_IUPAC_INCHI>
InChI=1S/C19H18N4O3/c1-12-10-17(22-19(21-12)14-7-3-4-8-15(14)24)23-20-11-13-6-5-9-16(26-2)18(13)25/h3-11,20-21H,1-2H3,(H,22,23)/b13-11+,19-14+

> <PUBCHEM_IUPAC_INCHIKEY>
SJQMNQVMJXXDCD-DCODIGEKSA-N

> <PUBCHEM_IUPAC_NAME>
(6E)-2-methoxy-6-[[2-[(2E)-6-methyl-2-(6-oxocyclohexa-2,4-dien-1-ylidene)-1H-pyrimidin-4-yl]hydrazinyl]methylidene]cyclohexa-2,4-dien-1-one

> <PUBCHEM_IUPAC_OPENEYE_NAME>
(6E)-2-methoxy-6-[[2-[(2E)-6-methyl-2-(6-oxocyclohexa-2,4-dien-1-ylidene)-1H-pyrimidin-4-yl]hydrazino]methylene]cyclohexa-2,4-dien-1-one

> <PUBCHEM_IUPAC_SYSTEMATIC_NAME>
(6E)-2-methoxy-6-[[2-[(2E)-6-methyl-2-(6-oxidanylidenecyclohexa-2,4-dien-1-ylidene)-1H-pyrimidin-4-yl]hydrazinyl]methylidene]cyclohexa-2,4-dien-1-one

> <PUBCHEM_IUPAC_TRADITIONAL_NAME>
(6E)-6-[[N'-[(2E)-2-(6-ketocyclohexa-2,4-dien-1-ylidene)-6-methyl-1H-pyrimidin-4-yl]hydrazino]methylene]-2-methoxy-cyclohexa-2,4-dien-1-one

> <PUBCHEM_MOLECULAR_FORMULA>
C19H18N4O3

> <PUBCHEM_MOLECULAR_WEIGHT>
350.37122

> <PUBCHEM_MONOISOTOPIC_WEIGHT>
350.13789

> <PUBCHEM_OPENEYE_CAN_SMILES>
CC1=CC(=NC(=C2C=CC=CC2=O)N1)NNC=C3C=CC=C(C3=O)OC

> <PUBCHEM_OPENEYE_ISO_SMILES>
CC1=CC(=N/C(=C/2\C=CC=CC2=O)/N1)NN/C=C/3\C=CC=C(C3=O)OC

> <PUBCHEM_TOTAL_CHARGE>
0

> <PUBCHEM_XLOGP3_AA>
3

$$$$
Written by BCL::WriteToMDL,4581175
MBcorina  10171218483D 1   1.00000     0.00000 
CORINA 3.49 0026  01.06.2011
 46 48  0  0  0  0  0  0  0  0999 V2000
    5.2733   -6.1320   -3.4148 Cl  0  0  0  1  0  1  0  0  0  0  0  0
    1.7083   -5.4190   -1.6308 S   0  0  0  1  0  1  0  0  0  0  0  0
    4.4681   -2.5305   -4.5773 O   0  0  0  1  0  1  0  0  0  0  0  0
   -0.0164    1.3558    0.0095 O   0  0  0  1  0  2  0  0  0  0  0  0
   -2.3321   -2.8072    0.0207 O   0  0  0  1  0  2  0  0  0  0  0  0
   -2.3806   -0.0546    0.0250 O   0  0  0  1  0  2  0  0  0  0  0  0
    2.9589   -3.0329   -1.4226 N   0  0  0  1  0  3  0  0  0  0  0  0
    3.1751   -4.0223   -3.4099 N   0  0  0  1  0  3  0  0  0  0  0  0
    3.7798   -2.1425   -2.2614 C   0  0  0  1  0  4  0  0  0  0  0  0
    2.5483   -2.7966   -0.0363 C   0  0  0  1  0  4  0  0  0  0  0  0
    2.6549   -4.1024   -2.1798 C   0  0  0  1  0  3  0  0  0  0  0  0
    3.8807   -2.8865   -3.5782 C   0  0  0  1  0  3  0  0  0  0  0  0
    1.2315   -2.0641   -0.0203 C   0  0  0  1  0  3  0  0  0  0  0  0
    3.0118   -5.0021   -4.3995 C   0  0  0  1  0  3  0  0  0  0  0  0
    0.0467   -2.7761   -0.0071 C   0  0  0  1  0  3  0  0  0  0  0  0
    1.2117   -0.6819   -0.0132 C   0  0  0  1  0  3  0  0  0  0  0  0
    0.0021   -0.0041    0.0020 C   0  0  0  1  0  3  0  0  0  0  0  0
   -1.1671   -2.1058    0.0081 C   0  0  0  1  0  3  0  0  0  0  0  0
   -1.1914   -0.7162    0.0100 C   0  0  0  1  0  3  0  0  0  0  0  0
    3.9261   -6.0431   -4.5061 C   0  0  0  1  0  3  0  0  0  0  0  0
    1.9337   -4.9375   -5.2708 C   0  0  0  1  0  3  0  0  0  0  0  0
    3.7618   -7.0073   -5.4824 C   0  0  0  1  0  3  0  0  0  0  0  0
    1.7751   -5.9046   -6.2447 C   0  0  0  1  0  3  0  0  0  0  0  0
    2.6892   -6.9362   -6.3525 C   0  0  0  1  0  3  0  0  0  0  0  0
    1.2479    2.0218    0.0010 C   0  0  0  1  0  4  0  0  0  0  0  0
   -2.2313   -4.2326    0.0174 C   0  0  0  1  0  4  0  0  0  0  0  0
   -2.9599    0.2672   -1.2411 C   0  0  0  1  0  4  0  0  0  0  0  0
    3.2838   -1.1819   -2.4007 H   0  0  0  1  0  1  0  0  0  0  0  0
    4.7677   -2.0049   -1.8219 H   0  0  0  1  0  1  0  0  0  0  0  0
    2.4392   -3.7514    0.4780 H   0  0  0  1  0  1  0  0  0  0  0  0
    3.3044   -2.1959    0.4692 H   0  0  0  1  0  1  0  0  0  0  0  0
    0.0665   -3.8559   -0.0090 H   0  0  0  1  0  1  0  0  0  0  0  0
    2.1395   -0.1293   -0.0191 H   0  0  0  1  0  1  0  0  0  0  0  0
    1.2190   -4.1321   -5.1876 H   0  0  0  1  0  1  0  0  0  0  0  0
    4.4718   -7.8168   -5.5662 H   0  0  0  1  0  1  0  0  0  0  0  0
    0.9361   -5.8545   -6.9229 H   0  0  0  1  0  1  0  0  0  0  0  0
    2.5631   -7.6904   -7.1152 H   0  0  0  1  0  1  0  0  0  0  0  0
    1.0905    3.1003    0.0083 H   0  0  0  1  0  1  0  0  0  0  0  0
    1.8173    1.7317    0.8840 H   0  0  0  1  0  1  0  0  0  0  0  0
    1.8003    1.7413   -0.8958 H   0  0  0  1  0  1  0  0  0  0  0  0
   -3.2307   -4.6676    0.0284 H   0  0  0  1  0  1  0  0  0  0  0  0
   -1.7035   -4.5574   -0.8794 H   0  0  0  1  0  1  0  0  0  0  0  0
   -1.6827   -4.5601    0.9005 H   0  0  0  1  0  1  0  0  0  0  0  0
   -2.2767    0.9053   -1.8016 H   0  0  0  1  0  1  0  0  0  0  0  0
   -3.1420   -0.6501   -1.8010 H   0  0  0  1  0  1  0  0  0  0  0  0
   -3.9027    0.7917   -1.0865 H   0  0  0  1  0  1  0  0  0  0  0  0
  1 20  1  0  0  0  0
  2 11  2  0  0  0  0
  3 12  2  0  0  0  0
  4 17  1  0  0  0  0
  4 25  1  0  0  0  0
  5 18  1  0  0  0  0
  5 26  1  0  0  0  0
  6 19  1  0  0  0  0
  6 27  1  0  0  0  0
  7  9  1  0  0  0  0
  7 10  1  0  0  0  0
  7 11  1  0  0  0  0
  8 11  1  0  0  0  0
  8 12  1  0  0  0  0
  8 14  1  0  0  0  0
  9 12  1  0  0  0  0
  9 28  1  0  0  0  0
  9 29  1  0  0  0  0
 10 13  1  0  0  0  0
 10 30  1  0  0  0  0
 10 31  1  0  0  0  0
 13 15  2  0  0  0  0
 13 16  1  0  0  0  0
 14 20  1  0  0  0  0
 14 21  2  0  0  0  0
 15 18  1  0  0  0  0
 15 32  1  0  0  0  0
 16 17  2  0  0  0  0
 16 33  1  0  0  0  0
 17 19  1  0  0  0  0
 18 19  2  0  0  0  0
 20 22  2  0  0  0  0
 21 23  1  0  0  0  0
 21 34  1  0  0  0  0
 22 24  1  0  0  0  0
 22 35  1  0  0  0  0
 23 24  2  0  0  0  0
 23 36  1  0  0  0  0
 24 37  1  0  0  0  0
 25 38  1  0  0  0  0
 25 39  1  0  0  0  0
 25 40  1  0  0  0  0
 26 41  1  0  0  0  0
 26 42  1  0  0  0  0
 26 43  1  0  0  0  0
 27 44  1  0  0  0  0
 27 45  1  0  0  0  0
 27 46  1  0  0  0  0
M  END
> <Activity>
1.007

> <Mapped(file=504701.csv.activities,property=Cached(PUBCHEM_COMPOUND_CID))>
1.007

> <PUBCHEM_ATOM_DEF_STEREO_COUNT>
0

> <PUBCHEM_ATOM_UDEF_STEREO_COUNT>
0

> <PUBCHEM_BONDANNOTATIONS>
13  15  8
13  16  8
14  20  8
14  21  8
15  18  8
16  17  8
17  19  8
18  19  8
20  22  8
21  23  8
22  24  8
23  24  8

> <PUBCHEM_BOND_DEF_STEREO_COUNT>
0

> <PUBCHEM_BOND_UDEF_STEREO_COUNT>
0

> <PUBCHEM_CACTVS_COMPLEXITY>
538

> <PUBCHEM_CACTVS_HBOND_ACCEPTOR>
5

> <PUBCHEM_CACTVS_HBOND_DONOR>
0

> <PUBCHEM_CACTVS_ROTATABLE_BOND>
6

> <PUBCHEM_CACTVS_SUBSKEYS>
AAADceB7OABEAAAAAAAAAAAAAAAAAWAAAAAwYAAAAAAAAAABQAAAHgYAAAAADA7BmCYzxoMABACMAiVSUACCCAAhJwgIiACO7oiNZyLFs7vUMCptxRfK6Cew8B4OIAABCAAAQBBAAAIQAACAIAAAAAAAAA==

> <PUBCHEM_CACTVS_TAUTO_COUNT>
2

> <PUBCHEM_CACTVS_TPSA>
83.3

> <PUBCHEM_COMPONENT_COUNT>
1

> <PUBCHEM_COMPOUND_CANONICALIZED>
1

> <PUBCHEM_COMPOUND_CID>
4581175

> <PUBCHEM_COORDINATE_TYPE>
1
5
255

> <PUBCHEM_EXACT_MASS>
406.075406

> <PUBCHEM_HEAVY_ATOM_COUNT>
27

> <PUBCHEM_ISOTOPIC_ATOM_COUNT>
0

> <PUBCHEM_IUPAC_CAS_NAME>
3-(2-chlorophenyl)-2-sulfanylidene-1-[(3,4,5-trimethoxyphenyl)methyl]-4-imidazolidinone

> <PUBCHEM_IUPAC_INCHI>
InChI=1S/C19H19ClN2O4S/c1-24-15-8-12(9-16(25-2)18(15)26-3)10-21-11-17(23)22(19(21)27)14-7-5-4-6-13(14)20/h4-9H,10-11H2,1-3H3

> <PUBCHEM_IUPAC_INCHIKEY>
JAPKQFTUXANLIH-UHFFFAOYSA-N

> <PUBCHEM_IUPAC_NAME>
3-(2-chlorophenyl)-2-sulfanylidene-1-[(3,4,5-trimethoxyphenyl)methyl]imidazolidin-4-one

> <PUBCHEM_IUPAC_OPENEYE_NAME>
3-(2-chlorophenyl)-2-thioxo-1-[(3,4,5-trimethoxyphenyl)methyl]imidazolidin-4-one

> <PUBCHEM_IUPAC_SYSTEMATIC_NAME>
3-(2-chlorophenyl)-2-sulfanylidene-1-[(3,4,5-trimethoxyphenyl)methyl]imidazolidin-4-one

> <PUBCHEM_IUPAC_TRADITIONAL_NAME>
3-(2-chlorophenyl)-2-thioxo-1-(3,4,5-trimethoxybenzyl)-4-imidazolidinone

> <PUBCHEM_MOLECULAR_FORMULA>
C19H19ClN2O4S

> <PUBCHEM_MOLECULAR_WEIGHT>
406.88316

> <PUBCHEM_MONOISOTOPIC_WEIGHT>
406.075406

> <PUBCHEM_OPENEYE_CAN_SMILES>
COC1=CC(=CC(=C1OC)OC)CN2CC(=O)N(C2=S)C3=CC=CC=C3Cl

> <PUBCHEM_OPENEYE_ISO_SMILES>
COC1=CC(=CC(=C1OC)OC)CN2CC(=O)N(C2=S)C3=CC=CC=C3Cl

> <PUBCHEM_TOTAL_CHARGE>
0

> <PUBCHEM_XLOGP3_AA>
3.5

$$$$
Written by BCL::WriteToMDL,979629
MBcorina  10171218483D 1   1.00000     0.00000 
CORINA 3.49 0026  01.06.2011
 52 55  0  0  0  0  0  0  0  0999 V2000
   -0.0172    1.4168    0.0098 S   0  0  0  1  0  4  0  0  0  0  0  0
   -4.0609    4.3311    6.8597 S   0  0  0  1  0  2  0  0  0  0  0  0
   -1.5665    2.2299   -3.9563 O   0  0  0  1  0  2  0  0  0  0  0  0
    0.0021   -0.0041    0.0020 O   0  0  0  1  0  1  0  0  0  0  0  0
    1.1617    2.2101    0.0028 O   0  0  0  1  0  1  0  0  0  0  0  0
   -7.4169    3.7135   10.5896 O   0  0  0  1  0  2  0  0  0  0  0  0
   -5.8367    3.7175    8.6472 O   0  0  0  1  0  1  0  0  0  0  0  0
   -0.9002    1.8797   -1.3124 N   0  0  0  1  0  3  0  0  0  0  0  0
   -4.0186    2.2456    5.4639 N   0  0  0  1  0  2  0  0  0  0  0  0
   -5.5888    2.0131    7.2446 N   0  0  0  1  0  3  0  0  0  0  0  0
   -0.7188    3.2091   -1.9168 C   0  0  0  1  0  4  0  0  0  0  0  0
   -1.8891    0.9738   -1.9179 C   0  0  0  1  0  4  0  0  0  0  0  0
   -0.5077    3.0300   -3.4245 C   0  0  0  1  0  4  0  0  0  0  0  0
   -1.6210    0.9035   -3.4256 C   0  0  0  1  0  4  0  0  0  0  0  0
   -0.9297    1.8941    1.4396 C   0  0  0  1  0  3  0  0  0  0  0  0
   -1.8430    1.0182    1.9983 C   0  0  0  1  0  3  0  0  0  0  0  0
   -0.7258    3.1413    2.0024 C   0  0  0  1  0  3  0  0  0  0  0  0
   -2.3634    2.6442    3.6861 C   0  0  0  1  0  3  0  0  0  0  0  0
   -2.5605    1.3867    3.1181 C   0  0  0  1  0  3  0  0  0  0  0  0
   -1.4376    3.5205    3.1222 C   0  0  0  1  0  3  0  0  0  0  0  0
   -3.1315    3.0460    4.8896 C   0  0  0  1  0  3  0  0  0  0  0  0
   -2.9763    4.2479    5.4734 C   0  0  0  1  0  3  0  0  0  0  0  0
   -4.6319    2.7019    6.5114 C   0  0  0  1  0  3  0  0  0  0  0  0
   -7.1762    1.8602    9.0983 C   0  0  0  1  0  3  0  0  0  0  0  0
   -6.1597    2.5920    8.3195 C   0  0  0  1  0  3  0  0  0  0  0  0
   -7.7727    2.4585   10.2172 C   0  0  0  1  0  3  0  0  0  0  0  0
   -7.5545    0.5693    8.7221 C   0  0  0  1  0  3  0  0  0  0  0  0
   -8.7276    1.7615   10.9417 C   0  0  0  1  0  3  0  0  0  0  0  0
   -8.5054   -0.1089    9.4539 C   0  0  0  1  0  3  0  0  0  0  0  0
   -9.0881    0.4835   10.5620 C   0  0  0  1  0  3  0  0  0  0  0  0
   -8.0672    4.2579   11.7397 C   0  0  0  1  0  4  0  0  0  0  0  0
   -1.7922   -0.0202   -1.4811 H   0  0  0  1  0  1  0  0  0  0  0  0
   -2.8943    1.3565   -1.7412 H   0  0  0  1  0  1  0  0  0  0  0  0
   -1.6062    3.8169   -1.7400 H   0  0  0  1  0  1  0  0  0  0  0  0
    0.1531    3.6954   -1.4793 H   0  0  0  1  0  1  0  0  0  0  0  0
   -2.4233    0.3492   -3.9126 H   0  0  0  1  0  1  0  0  0  0  0  0
   -0.6703    0.4009   -3.6033 H   0  0  0  1  0  1  0  0  0  0  0  0
    0.4471    2.5351   -3.6022 H   0  0  0  1  0  1  0  0  0  0  0  0
   -0.5091    4.0055   -3.9108 H   0  0  0  1  0  1  0  0  0  0  0  0
   -1.9951    0.0442    1.5571 H   0  0  0  1  0  1  0  0  0  0  0  0
   -0.0080    3.8193    1.5648 H   0  0  0  1  0  1  0  0  0  0  0  0
   -3.2735    0.7022    3.5532 H   0  0  0  1  0  1  0  0  0  0  0  0
   -1.2777    4.4944    3.5608 H   0  0  0  1  0  1  0  0  0  0  0  0
   -2.3033    5.0275    5.1483 H   0  0  0  1  0  1  0  0  0  0  0  0
   -5.8465    1.1152    6.9832 H   0  0  0  1  0  1  0  0  0  0  0  0
   -7.1028    0.1034    7.8588 H   0  0  0  1  0  1  0  0  0  0  0  0
   -9.1897    2.2183   11.8043 H   0  0  0  1  0  1  0  0  0  0  0  0
   -8.7972   -1.1070    9.1621 H   0  0  0  1  0  1  0  0  0  0  0  0
   -9.8319   -0.0555   11.1300 H   0  0  0  1  0  1  0  0  0  0  0  0
   -9.1422    4.2981   11.5643 H   0  0  0  1  0  1  0  0  0  0  0  0
   -7.8635    3.6269   12.6049 H   0  0  0  1  0  1  0  0  0  0  0  0
   -7.6917    5.2638   11.9273 H   0  0  0  1  0  1  0  0  0  0  0  0
  1  4  2  0  0  0  0
  1  5  2  0  0  0  0
  1  8  1  0  0  0  0
  1 15  1  0  0  0  0
  2 22  1  0  0  0  0
  2 23  1  0  0  0  0
  3 13  1  0  0  0  0
  3 14  1  0  0  0  0
  6 26  1  0  0  0  0
  6 31  1  0  0  0  0
  7 25  2  0  0  0  0
  8 11  1  0  0  0  0
  8 12  1  0  0  0  0
  9 21  1  0  0  0  0
  9 23  2  0  0  0  0
 10 23  1  0  0  0  0
 10 25  1  0  0  0  0
 10 45  1  0  0  0  0
 11 13  1  0  0  0  0
 11 34  1  0  0  0  0
 11 35  1  0  0  0  0
 12 14  1  0  0  0  0
 12 32  1  0  0  0  0
 12 33  1  0  0  0  0
 13 38  1  0  0  0  0
 13 39  1  0  0  0  0
 14 36  1  0  0  0  0
 14 37  1  0  0  0  0
 15 16  2  0  0  0  0
 15 17  1  0  0  0  0
 16 19  1  0  0  0  0
 16 40  1  0  0  0  0
 17 20  2  0  0  0  0
 17 41  1  0  0  0  0
 18 19  2  0  0  0  0
 18 20  1  0  0  0  0
 18 21  1  0  0  0  0
 19 42  1  0  0  0  0
 20 43  1  0  0  0  0
 21 22  2  0  0  0  0
 22 44  1  0  0  0  0
 24 25  1  0  0  0  0
 24 26  1  0  0  0  0
 24 27  2  0  0  0  0
 26 28  2  0  0  0  0
 27 29  1  0  0  0  0
 27 46  1  0  0  0  0
 28 30  1  0  0  0  0
 28 47  1  0  0  0  0
 29 30  2  0  0  0  0
 29 48  1  0  0  0  0
 30 49  1  0  0  0  0
 31 50  1  0  0  0  0
 31 51  1  0  0  0  0
 31 52  1  0  0  0  0
M  END
> <Activity>
3.595

> <Mapped(file=504701.csv.activities,property=Cached(PUBCHEM_COMPOUND_CID))>
3.595

> <PUBCHEM_ATOM_DEF_STEREO_COUNT>
0

> <PUBCHEM_ATOM_UDEF_STEREO_COUNT>
0

> <PUBCHEM_BONDANNOTATIONS>
15  16  8
15  17  8
16  19  8
17  20  8
18  19  8
18  20  8
2  22  8
2  23  8
21  22  8
24  26  8
24  27  8
26  28  8
27  29  8
28  30  8
29  30  8
9  21  8
9  23  8

> <PUBCHEM_BOND_DEF_STEREO_COUNT>
0

> <PUBCHEM_BOND_UDEF_STEREO_COUNT>
0

> <PUBCHEM_CACTVS_COMPLEXITY>
702

> <PUBCHEM_CACTVS_HBOND_ACCEPTOR>
7

> <PUBCHEM_CACTVS_HBOND_DONOR>
1

> <PUBCHEM_CACTVS_ROTATABLE_BOND>
6

> <PUBCHEM_CACTVS_SUBSKEYS>
AAADceB7OABgAAAAAAAAAAAAAAAAAWAAAAA8YIAAAAAAAAAB0AAAHgQQQAAADAzl3gazl5LIFAqsAyVydHDC+LllKjkJiD0+LNiOJrakvRuHMWhu4ROYqaeYyKCOEAAAAAAIAAAgAAAAABAAAAAAAAAAAA==

> <PUBCHEM_CACTVS_TAUTO_COUNT>
3

> <PUBCHEM_CACTVS_TPSA>
134

> <PUBCHEM_COMPONENT_COUNT>
1

> <PUBCHEM_COMPOUND_CANONICALIZED>
1

> <PUBCHEM_COMPOUND_CID>
979629

> <PUBCHEM_COORDINATE_TYPE>
1
5
255

> <PUBCHEM_EXACT_MASS>
459.092263

> <PUBCHEM_HEAVY_ATOM_COUNT>
31

> <PUBCHEM_ISOTOPIC_ATOM_COUNT>
0

> <PUBCHEM_IUPAC_CAS_NAME>
2-methoxy-N-[4-[4-(4-morpholinylsulfonyl)phenyl]-2-thiazolyl]benzamide

> <PUBCHEM_IUPAC_INCHI>
InChI=1S/C21H21N3O5S2/c1-28-19-5-3-2-4-17(19)20(25)23-21-22-18(14-30-21)15-6-8-16(9-7-15)31(26,27)24-10-12-29-13-11-24/h2-9,14H,10-13H2,1H3,(H,22,23,25)

> <PUBCHEM_IUPAC_INCHIKEY>
OEWBVHQZAIHBFE-UHFFFAOYSA-N

> <PUBCHEM_IUPAC_NAME>
2-methoxy-N-[4-(4-morpholin-4-ylsulfonylphenyl)-1,3-thiazol-2-yl]benzamide

> <PUBCHEM_IUPAC_OPENEYE_NAME>
2-methoxy-N-[4-(4-morpholinosulfonylphenyl)thiazol-2-yl]benzamide

> <PUBCHEM_IUPAC_SYSTEMATIC_NAME>
2-methoxy-N-[4-(4-morpholin-4-ylsulfonylphenyl)-1,3-thiazol-2-yl]benzamide

> <PUBCHEM_IUPAC_TRADITIONAL_NAME>
2-methoxy-N-[4-(4-morpholinosulfonylphenyl)thiazol-2-yl]benzamide

> <PUBCHEM_MOLECULAR_FORMULA>
C21H21N3O5S2

> <PUBCHEM_MOLECULAR_WEIGHT>
459.53854

> <PUBCHEM_MONOISOTOPIC_WEIGHT>
459.092263

> <PUBCHEM_OPENEYE_CAN_SMILES>
COC1=CC=CC=C1C(=O)NC2=NC(=CS2)C3=CC=C(C=C3)S(=O)(=O)N4CCOCC4

> <PUBCHEM_OPENEYE_ISO_SMILES>
COC1=CC=CC=C1C(=O)NC2=NC(=CS2)C3=CC=C(C=C3)S(=O)(=O)N4CCOCC4

> <PUBCHEM_TOTAL_CHARGE>
0

> <PUBCHEM_XLOGP3_AA>
2.5

$$$$
Written by BCL::WriteToMDL,746478
MBcorina  10171218483D 1   1.00000     0.00000 
CORINA 3.49 0026  01.06.2011
 32 35  0  0  0  0  0  0  0  0999 V2000
   -0.0167    1.3815    0.0096 N   0  0  0  1  0  3  0  0  0  0  0  0
    1.7353    3.1165    0.0027 N   0  0  0  1  0  2  0  0  0  0  0  0
    3.4736    0.9845   -0.0260 N   0  0  0  1  0  2  0  0  0  0  0  0
    0.0021   -0.0041    0.0020 C   0  0  0  1  0  3  0  0  0  0  0  0
    1.3375   -0.4332   -0.0131 C   0  0  0  1  0  3  0  0  0  0  0  0
    1.2690    1.8811    0.0000 C   0  0  0  1  0  3  0  0  0  0  0  0
    2.1698    0.7850   -0.0145 C   0  0  0  1  0  3  0  0  0  0  0  0
   -1.2313    2.2006    0.0201 C   0  0  0  1  0  4  0  0  0  0  0  0
   -1.0159   -0.9516    0.0071 C   0  0  0  1  0  3  0  0  0  0  0  0
    1.6348   -1.7936   -0.0229 C   0  0  0  1  0  3  0  0  0  0  0  0
    3.0552    3.3313   -0.0083 C   0  0  0  1  0  3  0  0  0  0  0  0
    3.9522    2.2320   -0.0238 C   0  0  0  1  0  3  0  0  0  0  0  0
   -1.6470    2.4779    1.4661 C   0  0  0  1  0  4  0  0  0  0  0  0
   -0.7086   -2.2962   -0.0022 C   0  0  0  1  0  3  0  0  0  0  0  0
    0.6113   -2.7179   -0.0176 C   0  0  0  1  0  3  0  0  0  0  0  0
    3.5722    4.6388   -0.0052 C   0  0  0  1  0  3  0  0  0  0  0  0
    5.3379    2.4732   -0.0353 C   0  0  0  1  0  3  0  0  0  0  0  0
    4.9191    4.8330   -0.0162 C   0  0  0  1  0  3  0  0  0  0  0  0
    5.8001    3.7531   -0.0322 C   0  0  0  1  0  3  0  0  0  0  0  0
   -1.0374    3.1444   -0.4896 H   0  0  0  1  0  1  0  0  0  0  0  0
   -2.0327    1.6687   -0.4927 H   0  0  0  1  0  1  0  0  0  0  0  0
   -2.0482   -0.6342    0.0188 H   0  0  0  1  0  1  0  0  0  0  0  0
    2.6630   -2.1236   -0.0349 H   0  0  0  1  0  1  0  0  0  0  0  0
   -0.8457    3.0098    1.9789 H   0  0  0  1  0  1  0  0  0  0  0  0
   -2.5507    3.0873    1.4739 H   0  0  0  1  0  1  0  0  0  0  0  0
   -1.8409    1.5341    1.9758 H   0  0  0  1  0  1  0  0  0  0  0  0
   -1.5038   -3.0269    0.0022 H   0  0  0  1  0  1  0  0  0  0  0  0
    0.8391   -3.7736   -0.0252 H   0  0  0  1  0  1  0  0  0  0  0  0
    2.9027    5.4862    0.0056 H   0  0  0  1  0  1  0  0  0  0  0  0
    6.0322    1.6461   -0.0461 H   0  0  0  1  0  1  0  0  0  0  0  0
    5.3113    5.8393   -0.0137 H   0  0  0  1  0  1  0  0  0  0  0  0
    6.8647    3.9346   -0.0410 H   0  0  0  1  0  1  0  0  0  0  0  0
  1  4  1  0  0  0  0
  1  6  1  0  0  0  0
  1  8  1  0  0  0  0
  2  6  2  0  0  0  0
  2 11  1  0  0  0  0
  3  7  2  0  0  0  0
  3 12  1  0  0  0  0
  4  5  1  0  0  0  0
  4  9  2  0  0  0  0
  5  7  1  0  0  0  0
  5 10  2  0  0  0  0
  6  7  1  0  0  0  0
  8 13  1  0  0  0  0
  8 20  1  0  0  0  0
  8 21  1  0  0  0  0
  9 14  1  0  0  0  0
  9 22  1  0  0  0  0
 10 15  1  0  0  0  0
 10 23  1  0  0  0  0
 11 12  1  0  0  0  0
 11 16  2  0  0  0  0
 12 17  2  0  0  0  0
 13 24  1  0  0  0  0
 13 25  1  0  0  0  0
 13 26  1  0  0  0  0
 14 15  2  0  0  0  0
 14 27  1  0  0  0  0
 15 28  1  0  0  0  0
 16 18  1  0  0  0  0
 16 29  1  0  0  0  0
 17 19  1  0  0  0  0
 17 30  1  0  0  0  0
 18 19  2  0  0  0  0
 18 31  1  0  0  0  0
 19 32  1  0  0  0  0
M  END
> <Activity>
0.914

> <Mapped(file=504701.csv.activities,property=Cached(PUBCHEM_COMPOUND_CID))>
0.914

> <PUBCHEM_ATOM_DEF_STEREO_COUNT>
0

> <PUBCHEM_ATOM_UDEF_STEREO_COUNT>
0

> <PUBCHEM_BONDANNOTATIONS>
1  4  8
1  6  8
10  15  8
11  12  8
11  16  8
12  17  8
14  15  8
16  18  8
17  19  8
18  19  8
2  11  8
2  6  8
3  12  8
3  7  8
4  5  8
4  9  8
5  10  8
5  7  8
6  7  8
9  14  8

> <PUBCHEM_BOND_DEF_STEREO_COUNT>
0

> <PUBCHEM_BOND_UDEF_STEREO_COUNT>
0

> <PUBCHEM_CACTVS_COMPLEXITY>
332

> <PUBCHEM_CACTVS_HBOND_ACCEPTOR>
1

> <PUBCHEM_CACTVS_HBOND_DONOR>
0

> <PUBCHEM_CACTVS_ROTATABLE_BOND>
1

> <PUBCHEM_CACTVS_SUBSKEYS>
AAADccB7AAAAAAAAAAAAAAAAAAAAAWAAAAA8YIAAAAAAAFix/gAAHAAAAAAADAjBHwQz8P8MEACgAyZiZACCgC0hEqAJ2CA4dJiIaOLA2dGUJAhogALIyCcQgIAOAAAAAAACACAAAAAAAAQAQAAAAAAAAA==

> <PUBCHEM_CACTVS_TAUTO_COUNT>
1

> <PUBCHEM_CACTVS_TPSA>
30.7

> <PUBCHEM_COMPONENT_COUNT>
1

> <PUBCHEM_COMPOUND_CANONICALIZED>
1

> <PUBCHEM_COMPOUND_CID>
746478

> <PUBCHEM_COORDINATE_TYPE>
1
5
255

> <PUBCHEM_EXACT_MASS>
247.110947

> <PUBCHEM_HEAVY_ATOM_COUNT>
19

> <PUBCHEM_ISOTOPIC_ATOM_COUNT>
0

> <PUBCHEM_IUPAC_CAS_NAME>
6-ethylindolo[3,2-b]quinoxaline

> <PUBCHEM_IUPAC_INCHI>
InChI=1S/C16H13N3/c1-2-19-14-10-6-3-7-11(14)15-16(19)18-13-9-5-4-8-12(13)17-15/h3-10H,2H2,1H3

> <PUBCHEM_IUPAC_INCHIKEY>
IQAPAXYJGPZPMU-UHFFFAOYSA-N

> <PUBCHEM_IUPAC_NAME>
6-ethylindolo[3,2-b]quinoxaline

> <PUBCHEM_IUPAC_OPENEYE_NAME>
6-ethylindolo[3,2-b]quinoxaline

> <PUBCHEM_IUPAC_SYSTEMATIC_NAME>
6-ethylindolo[3,2-b]quinoxaline

> <PUBCHEM_IUPAC_TRADITIONAL_NAME>
6-ethylindolo[3,2-b]quinoxaline

> <PUBCHEM_MOLECULAR_FORMULA>
C16H13N3

> <PUBCHEM_MOLECULAR_WEIGHT>
247.29452

> <PUBCHEM_MONOISOTOPIC_WEIGHT>
247.110947

> <PUBCHEM_OPENEYE_CAN_SMILES>
CCN1C2=CC=CC=C2C3=NC4=CC=CC=C4N=C31

> <PUBCHEM_OPENEYE_ISO_SMILES>
CCN1C2=CC=CC=C2C3=NC4=CC=CC=C4N=C31

> <PUBCHEM_TOTAL_CHARGE>
0

> <PUBCHEM_XLOGP3_AA>
3.1

$$$$
Written by BCL::WriteToMDL,24979400
MBcorina  10171218483D 1   1.00000     0.00000 
CORINA 3.49 0026  01.06.2011
 55 58  0  0  0  0  0  0  0  0999 V2000
    4.1083   -1.6781   -1.2591 S   0  0  0  1  0  2  0  0  0  0  0  0
   -5.9400   -5.7519   -8.2763 S   0  0  0  1  0  2  0  0  0  0  0  0
   -0.4288   -2.8241   -0.6086 O   0  0  0  1  0  1  0  0  0  0  0  0
   -1.3439   -6.5537   -3.0746 O   0  0  0  1  0  1  0  0  0  0  0  0
   -6.0277   -8.3534   -5.5745 O   0  0  0  1  0  1  0  0  0  0  0  0
   -5.1948   -4.0067   -6.3828 O   0  0  0  1  0  1  0  0  0  0  0  0
    0.2228   -4.9964   -0.6488 N   0  0  0  1  0  3  0  0  0  0  0  0
   -3.4863   -6.0809   -2.7452 N   0  0  0  1  0  3  0  0  0  0  0  0
   -5.5846   -6.1853   -5.8275 N   0  0  0  1  0  3  0  0  0  0  0  0
   -7.2455   -9.3117  -12.0221 N   0  0  0  1  0  2  0  0  0  0  0  0
   -1.9134   -6.0695   -0.8361 C   0  0  0  1  0  4  0  0  0  0  0  0
   -0.4142   -6.3154   -0.5563 C   0  0  0  1  0  4  0  0  0  0  0  0
   -2.0739   -4.5899   -0.4166 C   0  0  0  1  0  4  0  0  0  0  0  0
   -0.6854   -4.0088   -0.5676 C   0  0  0  1  0  3  0  0  0  0  0  0
   -2.2261   -6.2523   -2.2989 C   0  0  0  1  0  3  0  0  0  0  0  0
    1.5993   -4.7931   -0.7966 C   0  0  0  1  0  3  0  0  0  0  0  0
   -3.7903   -6.2586   -4.1672 C   0  0  0  1  0  4  0  0  0  0  0  0
    2.1000   -3.5071   -0.9356 C   0  0  0  1  0  3  0  0  0  0  0  0
   -5.2806   -6.0076   -4.4054 C   0  0  0  1  0  4  0  0  0  0  0  0
    2.4665   -5.8789   -0.7985 C   0  0  0  1  0  3  0  0  0  0  0  0
    3.4668   -3.3095   -1.0816 C   0  0  0  1  0  3  0  0  0  0  0  0
    3.8258   -5.6795   -0.9439 C   0  0  0  1  0  3  0  0  0  0  0  0
    4.3280   -4.4006   -1.0879 C   0  0  0  1  0  3  0  0  0  0  0  0
   -5.9387   -7.3729   -6.2894 C   0  0  0  1  0  3  0  0  0  0  0  0
   -5.5055   -5.1474   -6.6680 C   0  0  0  1  0  3  0  0  0  0  0  0
   -6.2161   -7.4184   -7.7316 C   0  0  0  1  0  3  0  0  0  0  0  0
   -6.5957   -8.4869   -8.4747 C   0  0  0  1  0  3  0  0  0  0  0  0
    5.8943   -1.9564   -1.4118 C   0  0  0  1  0  4  0  0  0  0  0  0
   -6.6369   -8.3852   -9.9408 C   0  0  0  1  0  3  0  0  0  0  0  0
   -6.1018   -7.2644  -10.5945 C   0  0  0  1  0  3  0  0  0  0  0  0
   -7.2098   -9.4041  -10.7093 C   0  0  0  1  0  3  0  0  0  0  0  0
   -6.1660   -7.2191  -11.9749 C   0  0  0  1  0  3  0  0  0  0  0  0
   -6.7498   -8.2694  -12.6616 C   0  0  0  1  0  3  0  0  0  0  0  0
   -2.5366   -6.7191   -0.2214 H   0  0  0  1  0  1  0  0  0  0  0  0
    0.0035   -6.9893   -1.3043 H   0  0  0  1  0  1  0  0  0  0  0  0
   -0.2799   -6.7299    0.4428 H   0  0  0  1  0  1  0  0  0  0  0  0
   -2.7748   -4.0799   -1.0774 H   0  0  0  1  0  1  0  0  0  0  0  0
   -2.4058   -4.5210    0.6194 H   0  0  0  1  0  1  0  0  0  0  0  0
   -4.1919   -5.8398   -2.1248 H   0  0  0  1  0  1  0  0  0  0  0  0
   -3.2043   -5.5521   -4.7551 H   0  0  0  1  0  1  0  0  0  0  0  0
   -3.5406   -7.2762   -4.4678 H   0  0  0  1  0  1  0  0  0  0  0  0
   -5.5302   -4.9900   -4.1049 H   0  0  0  1  0  1  0  0  0  0  0  0
   -5.8666   -6.7141   -3.8176 H   0  0  0  1  0  1  0  0  0  0  0  0
    1.4284   -2.6614   -0.9307 H   0  0  0  1  0  1  0  0  0  0  0  0
    2.0773   -6.8801   -0.6858 H   0  0  0  1  0  1  0  0  0  0  0  0
    4.4974   -6.5253   -0.9446 H   0  0  0  1  0  1  0  0  0  0  0  0
    5.3911   -4.2481   -1.2017 H   0  0  0  1  0  1  0  0  0  0  0  0
   -6.8678   -9.4127   -7.9898 H   0  0  0  1  0  1  0  0  0  0  0  0
    6.4025   -0.9992   -1.5287 H   0  0  0  1  0  1  0  0  0  0  0  0
    6.2622   -2.4560   -0.5156 H   0  0  0  1  0  1  0  0  0  0  0  0
    6.0915   -2.5811   -2.2829 H   0  0  0  1  0  1  0  0  0  0  0  0
   -5.6520   -6.4583  -10.0338 H   0  0  0  1  0  1  0  0  0  0  0  0
   -7.6264  -10.2732  -10.2219 H   0  0  0  1  0  1  0  0  0  0  0  0
   -5.7648   -6.3723  -12.5119 H   0  0  0  1  0  1  0  0  0  0  0  0
   -6.8003   -8.2354  -13.7399 H   0  0  0  1  0  1  0  0  0  0  0  0
  1 21  1  0  0  0  0
  1 28  1  0  0  0  0
  2 25  1  0  0  0  0
  2 26  1  0  0  0  0
  3 14  2  0  0  0  0
  4 15  2  0  0  0  0
  5 24  2  0  0  0  0
  6 25  2  0  0  0  0
  7 12  1  0  0  0  0
  7 14  1  0  0  0  0
  7 16  1  0  0  0  0
  8 15  1  0  0  0  0
  8 17  1  0  0  0  0
  8 39  1  0  0  0  0
  9 19  1  0  0  0  0
  9 24  1  0  0  0  0
  9 25  1  0  0  0  0
 10 31  1  0  0  0  0
 10 33  2  0  0  0  0
 11 12  1  0  0  0  0
 11 13  1  0  0  0  0
 11 15  1  0  0  0  0
 11 34  1  0  0  0  0
 12 35  1  0  0  0  0
 12 36  1  0  0  0  0
 13 14  1  0  0  0  0
 13 37  1  0  0  0  0
 13 38  1  0  0  0  0
 16 18  2  0  0  0  0
 16 20  1  0  0  0  0
 17 19  1  0  0  0  0
 17 40  1  0  0  0  0
 17 41  1  0  0  0  0
 18 21  1  0  0  0  0
 18 44  1  0  0  0  0
 19 42  1  0  0  0  0
 19 43  1  0  0  0  0
 20 22  2  0  0  0  0
 20 45  1  0  0  0  0
 21 23  2  0  0  0  0
 22 23  1  0  0  0  0
 22 46  1  0  0  0  0
 23 47  1  0  0  0  0
 24 26  1  0  0  0  0
 26 27  2  0  0  0  0
 27 29  1  0  0  0  0
 27 48  1  0  0  0  0
 28 49  1  0  0  0  0
 28 50  1  0  0  0  0
 28 51  1  0  0  0  0
 29 30  1  0  0  0  0
 29 31  2  0  0  0  0
 30 32  2  0  0  0  0
 30 52  1  0  0  0  0
 31 53  1  0  0  0  0
 32 33  1  0  0  0  0
 32 54  1  0  0  0  0
 33 55  1  0  0  0  0
M  END
> <Activity>
0.35389

> <Mapped(file=504701.csv.activities,property=Cached(PUBCHEM_COMPOUND_CID))>
0.35389

> <PUBCHEM_ATOM_DEF_STEREO_COUNT>
0

> <PUBCHEM_ATOM_UDEF_STEREO_COUNT>
1

> <PUBCHEM_BONDANNOTATIONS>
10  31  8
10  33  8
11  15  3
16  18  8
16  20  8
18  21  8
20  22  8
21  23  8
22  23  8
29  30  8
29  31  8
30  32  8
32  33  8

> <PUBCHEM_BOND_DEF_STEREO_COUNT>
1

> <PUBCHEM_BOND_UDEF_STEREO_COUNT>
0

> <PUBCHEM_CACTVS_COMPLEXITY>
820

> <PUBCHEM_CACTVS_HBOND_ACCEPTOR>
7

> <PUBCHEM_CACTVS_HBOND_DONOR>
1

> <PUBCHEM_CACTVS_ROTATABLE_BOND>
7

> <PUBCHEM_CACTVS_SUBSKEYS>
AAADceB7uABgAAAAAAAAAAAAAAAAAWLAAAA8QAAAAAAAAAABwAAAHgQQAAAADQjB2gS+wZPIEAioAjV3VACCgCBxCjAI2Lk4ZNgIYPrg0ZGUIAxgliDIyYcVAAAMAAAAACAAAAAAAAAAQAAAAAAAAAAAAA==

> <PUBCHEM_CACTVS_TAUTO_COUNT>
4

> <PUBCHEM_CACTVS_TPSA>
150

> <PUBCHEM_COMPONENT_COUNT>
1

> <PUBCHEM_COMPOUND_CANONICALIZED>
1

> <PUBCHEM_COMPOUND_CID>
24979400

> <PUBCHEM_COORDINATE_TYPE>
1
5
255

> <PUBCHEM_EXACT_MASS>
482.108247

> <PUBCHEM_HEAVY_ATOM_COUNT>
33

> <PUBCHEM_ISOTOPIC_ATOM_COUNT>
0

> <PUBCHEM_IUPAC_CAS_NAME>
N-[2-[(5Z)-2,4-dioxo-5-(3-pyridinylmethylidene)-3-thiazolidinyl]ethyl]-1-[3-(methylthio)phenyl]-5-oxo-3-pyrrolidinecarboxamide

> <PUBCHEM_IUPAC_INCHI>
InChI=1S/C23H22N4O4S2/c1-32-18-6-2-5-17(12-18)27-14-16(11-20(27)28)21(29)25-8-9-26-22(30)19(33-23(26)31)10-15-4-3-7-24-13-15/h2-7,10,12-13,16H,8-9,11,14H2,1H3,(H,25,29)/b19-10-

> <PUBCHEM_IUPAC_INCHIKEY>
BNJQKZDJELTZGU-GRSHGNNSSA-N

> <PUBCHEM_IUPAC_NAME>
N-[2-[(5Z)-2,4-dioxo-5-(pyridin-3-ylmethylidene)-1,3-thiazolidin-3-yl]ethyl]-1-(3-methylsulfanylphenyl)-5-oxopyrrolidine-3-carboxamide

> <PUBCHEM_IUPAC_OPENEYE_NAME>
N-[2-[(5Z)-2,4-dioxo-5-(3-pyridylmethylene)thiazolidin-3-yl]ethyl]-1-(3-methylsulfanylphenyl)-5-oxo-pyrrolidine-3-carboxamide

> <PUBCHEM_IUPAC_SYSTEMATIC_NAME>
N-[2-[(5Z)-2,4-bis(oxidanylidene)-5-(pyridin-3-ylmethylidene)-1,3-thiazolidin-3-yl]ethyl]-1-(3-methylsulfanylphenyl)-5-oxidanylidene-pyrrolidine-3-carboxamide

> <PUBCHEM_IUPAC_TRADITIONAL_NAME>
N-[2-[(5Z)-2,4-diketo-5-(3-pyridylmethylene)thiazolidin-3-yl]ethyl]-5-keto-1-[3-(methylthio)phenyl]pyrrolidine-3-carboxamide

> <PUBCHEM_MOLECULAR_FORMULA>
C23H22N4O4S2

> <PUBCHEM_MOLECULAR_WEIGHT>
482.57518

> <PUBCHEM_MONOISOTOPIC_WEIGHT>
482.108247

> <PUBCHEM_OPENEYE_CAN_SMILES>
CSC1=CC=CC(=C1)N2CC(CC2=O)C(=O)NCCN3C(=O)C(=CC4=CN=CC=C4)SC3=O

> <PUBCHEM_OPENEYE_ISO_SMILES>
CSC1=CC=CC(=C1)N2CC(CC2=O)C(=O)NCCN3C(=O)/C(=C/C4=CN=CC=C4)/SC3=O

> <PUBCHEM_TOTAL_CHARGE>
0

> <PUBCHEM_XLOGP3_AA>
1.9

$$$$
Written by BCL::WriteToMDL,5295762
MBcorina  10171218483D 1   1.00000     0.00000 
CORINA 3.49 0026  01.06.2011
 31 34  0  0  0  0  0  0  0  0999 V2000
    8.3026    2.2322   -1.0439 F   0  0  0  1  0  1  0  0  0  0  0  0
    0.0833    0.9637   -0.2343 N   0  0  0  1  0  3  0  0  0  0  0  0
    2.6536   -0.0872   -0.4683 N   0  0  0  1  0  2  0  0  0  0  0  0
    3.6382    1.9840   -0.0221 N   0  0  0  1  0  3  0  0  0  0  0  0
    0.7282    2.9791    0.2004 N   0  0  0  1  0  2  0  0  0  0  0  0
   -0.5595    2.9618    0.2018 N   0  0  0  1  0  2  0  0  0  0  0  0
    0.2700   -0.3775   -0.5250 C   0  0  0  1  0  3  0  0  0  0  0  0
    1.1806    1.7717   -0.0620 C   0  0  0  1  0  3  0  0  0  0  0  0
    1.5733   -0.8911   -0.6393 C   0  0  0  1  0  3  0  0  0  0  0  0
    2.5189    1.1900   -0.1907 C   0  0  0  1  0  3  0  0  0  0  0  0
   -0.8210   -1.2177   -0.7047 C   0  0  0  1  0  3  0  0  0  0  0  0
   -0.9941    1.7523   -0.0555 C   0  0  0  1  0  3  0  0  0  0  0  0
    1.7527   -2.2485   -0.9345 C   0  0  0  1  0  3  0  0  0  0  0  0
    4.9114    1.4080   -0.0326 C   0  0  0  1  0  3  0  0  0  0  0  0
   -0.6251   -2.5520   -0.9945 C   0  0  0  1  0  3  0  0  0  0  0  0
    0.6584   -3.0644   -1.1084 C   0  0  0  1  0  3  0  0  0  0  0  0
    5.9916    2.1172   -0.5409 C   0  0  0  1  0  3  0  0  0  0  0  0
    5.0999    0.1266    0.4709 C   0  0  0  1  0  3  0  0  0  0  0  0
    7.2505    1.5438   -0.5497 C   0  0  0  1  0  3  0  0  0  0  0  0
    6.3588   -0.4408    0.4596 C   0  0  0  1  0  3  0  0  0  0  0  0
    7.4326    0.2640   -0.0525 C   0  0  0  1  0  3  0  0  0  0  0  0
   -1.8237   -0.8261   -0.6172 H   0  0  0  1  0  1  0  0  0  0  0  0
    3.5398    2.9407    0.1035 H   0  0  0  1  0  1  0  0  0  0  0  0
   -2.0275    1.4441   -0.1136 H   0  0  0  1  0  1  0  0  0  0  0  0
    2.7494   -2.6544   -1.0258 H   0  0  0  1  0  1  0  0  0  0  0  0
   -1.4766   -3.2018   -1.1331 H   0  0  0  1  0  1  0  0  0  0  0  0
    0.8001   -4.1105   -1.3363 H   0  0  0  1  0  1  0  0  0  0  0  0
    5.8490    3.1149   -0.9292 H   0  0  0  1  0  1  0  0  0  0  0  0
    4.2623   -0.4251    0.8712 H   0  0  0  1  0  1  0  0  0  0  0  0
    6.5048   -1.4367    0.8510 H   0  0  0  1  0  1  0  0  0  0  0  0
    8.4159   -0.1826   -0.0608 H   0  0  0  1  0  1  0  0  0  0  0  0
  1 19  1  0  0  0  0
  2  7  1  0  0  0  0
  2  8  1  0  0  0  0
  2 12  1  0  0  0  0
  3  9  1  0  0  0  0
  3 10  2  0  0  0  0
  4 10  1  0  0  0  0
  4 14  1  0  0  0  0
  4 23  1  0  0  0  0
  5  6  1  0  0  0  0
  5  8  2  0  0  0  0
  6 12  2  0  0  0  0
  7  9  1  0  0  0  0
  7 11  2  0  0  0  0
  8 10  1  0  0  0  0
  9 13  2  0  0  0  0
 11 15  1  0  0  0  0
 11 22  1  0  0  0  0
 12 24  1  0  0  0  0
 13 16  1  0  0  0  0
 13 25  1  0  0  0  0
 14 17  2  0  0  0  0
 14 18  1  0  0  0  0
 15 16  2  0  0  0  0
 15 26  1  0  0  0  0
 16 27  1  0  0  0  0
 17 19  1  0  0  0  0
 17 28  1  0  0  0  0
 18 20  2  0  0  0  0
 18 29  1  0  0  0  0
 19 21  2  0  0  0  0
 20 21  1  0  0  0  0
 20 30  1  0  0  0  0
 21 31  1  0  0  0  0
M  END
> <Activity>
2.028

> <Mapped(file=504701.csv.activities,property=Cached(PUBCHEM_COMPOUND_CID))>
2.028

> <PUBCHEM_ATOM_DEF_STEREO_COUNT>
0

> <PUBCHEM_ATOM_UDEF_STEREO_COUNT>
0

> <PUBCHEM_BONDANNOTATIONS>
11  15  8
13  16  8
14  17  8
14  18  8
15  16  8
17  19  8
18  20  8
19  21  8
2  12  8
2  7  8
2  8  8
20  21  8
3  10  8
3  9  8
5  6  8
5  8  8
6  12  8
7  11  8
7  9  8
8  10  8
9  13  8

> <PUBCHEM_BOND_DEF_STEREO_COUNT>
0

> <PUBCHEM_BOND_UDEF_STEREO_COUNT>
0

> <PUBCHEM_CACTVS_COMPLEXITY>
368

> <PUBCHEM_CACTVS_HBOND_ACCEPTOR>
2

> <PUBCHEM_CACTVS_HBOND_DONOR>
1

> <PUBCHEM_CACTVS_ROTATABLE_BOND>
2

> <PUBCHEM_CACTVS_SUBSKEYS>
AAADccBzgQAAAAAAAAAAAAAAAAAAAWAAAAA8YIAAAAAAAFix9AAAHQAYAAAACAiBFww18L/MGACiASZjZACShC8xkqAd2CA4dJiIaOLAmZGUoAhomALIyCcQAAAAAAAAAAAAACAAAAAAAAAAQAAAAAAAAA==

> <PUBCHEM_CACTVS_TAUTO_COUNT>
2

> <PUBCHEM_CACTVS_TPSA>
55.1

> <PUBCHEM_COMPONENT_COUNT>
1

> <PUBCHEM_COMPOUND_CANONICALIZED>
1

> <PUBCHEM_COMPOUND_CID>
5295762

> <PUBCHEM_COORDINATE_TYPE>
1
5
255

> <PUBCHEM_EXACT_MASS>
279.092024

> <PUBCHEM_HEAVY_ATOM_COUNT>
21

> <PUBCHEM_ISOTOPIC_ATOM_COUNT>
0

> <PUBCHEM_IUPAC_CAS_NAME>
N-(3-fluorophenyl)-[1,2,4]triazolo[4,3-a]quinoxalin-4-amine

> <PUBCHEM_IUPAC_INCHI>
InChI=1S/C15H10FN5/c16-10-4-3-5-11(8-10)18-14-15-20-17-9-21(15)13-7-2-1-6-12(13)19-14/h1-9H,(H,18,19)

> <PUBCHEM_IUPAC_INCHIKEY>
GNHBJXDWNKDKDF-UHFFFAOYSA-N

> <PUBCHEM_IUPAC_NAME>
N-(3-fluorophenyl)-[1,2,4]triazolo[4,3-a]quinoxalin-4-amine

> <PUBCHEM_IUPAC_OPENEYE_NAME>
N-(3-fluorophenyl)-[1,2,4]triazolo[4,3-a]quinoxalin-4-amine

> <PUBCHEM_IUPAC_SYSTEMATIC_NAME>
N-(3-fluorophenyl)-[1,2,4]triazolo[4,3-a]quinoxalin-4-amine

> <PUBCHEM_IUPAC_TRADITIONAL_NAME>
(3-fluorophenyl)-([1,2,4]triazolo[4,3-a]quinoxalin-4-yl)amine

> <PUBCHEM_MOLECULAR_FORMULA>
C15H10FN5

> <PUBCHEM_MOLECULAR_WEIGHT>
279.271803

> <PUBCHEM_MONOISOTOPIC_WEIGHT>
279.092024

> <PUBCHEM_OPENEYE_CAN_SMILES>
C1=CC=C2C(=C1)N=C(C3=NN=CN23)NC4=CC(=CC=C4)F

> <PUBCHEM_OPENEYE_ISO_SMILES>
C1=CC=C2C(=C1)N=C(C3=NN=CN23)NC4=CC(=CC=C4)F

> <PUBCHEM_TOTAL_CHARGE>
0

> <PUBCHEM_XLOGP3_AA>
3.5

$$$$
Written by BCL::WriteToMDL,9085542
MBcorina  10171218483D 1   1.00000     0.00000 
CORINA 3.49 0026  01.06.2011
 37 40  0  0  0  0  0  0  0  0999 V2000
    3.1168   -1.8476    1.4434 S   0  0  0  1  0  2  0  0  0  0  0  0
   -6.3912  -10.0277   -0.4987 F   0  0  0  1  0  1  0  0  0  0  0  0
   -3.9754   -5.1426   -0.2091 O   0  0  0  1  0  2  0  0  0  0  0  0
   -0.4120   -4.9800    0.0676 O   0  0  0  1  0  1  0  0  0  0  0  0
   -1.7788   -3.2294    0.0004 N   0  0  0  1  0  3  0  0  0  0  0  0
    2.5551    0.2025    0.1077 N   0  0  0  1  0  2  0  0  0  0  0  0
   -2.5666   -6.8496   -0.1373 C   0  0  0  1  0  3  0  0  0  0  0  0
   -3.9304   -7.3648   -0.2532 C   0  0  0  1  0  3  0  0  0  0  0  0
   -2.6763   -5.4958   -0.1167 C   0  0  0  1  0  3  0  0  0  0  0  0
   -4.7643   -6.2323   -0.2931 C   0  0  0  1  0  3  0  0  0  0  0  0
   -0.7030   -2.3347    0.0041 C   0  0  0  1  0  3  0  0  0  0  0  0
   -1.5504   -4.5577   -0.0105 C   0  0  0  1  0  3  0  0  0  0  0  0
   -4.4838   -8.6460   -0.3232 C   0  0  0  1  0  3  0  0  0  0  0  0
   -1.2968   -7.6570   -0.0562 C   0  0  0  1  0  4  0  0  0  0  0  0
    1.5275   -1.7563    0.6884 C   0  0  0  1  0  3  0  0  0  0  0  0
   -6.1394   -6.4036   -0.4021 C   0  0  0  1  0  3  0  0  0  0  0  0
    1.4357   -0.5403    0.0035 C   0  0  0  1  0  3  0  0  0  0  0  0
    0.4577   -2.6492    0.6863 C   0  0  0  1  0  3  0  0  0  0  0  0
   -0.7983   -1.1245   -0.6813 C   0  0  0  1  0  3  0  0  0  0  0  0
   -5.8497   -8.7919   -0.4306 C   0  0  0  1  0  3  0  0  0  0  0  0
    0.2391   -0.2451   -0.6854 C   0  0  0  1  0  3  0  0  0  0  0  0
   -6.6729   -7.6719   -0.4699 C   0  0  0  1  0  3  0  0  0  0  0  0
    3.5303   -0.2683    0.7906 C   0  0  0  1  0  3  0  0  0  0  0  0
    4.8470    0.4327    1.0052 C   0  0  0  1  0  4  0  0  0  0  0  0
   -3.8450   -9.5163   -0.2930 H   0  0  0  1  0  1  0  0  0  0  0  0
   -0.9116   -7.8304   -1.0610 H   0  0  0  1  0  1  0  0  0  0  0  0
   -0.5558   -7.1112    0.5278 H   0  0  0  1  0  1  0  0  0  0  0  0
   -1.5045   -8.6136    0.4233 H   0  0  0  1  0  1  0  0  0  0  0  0
   -2.6888   -2.8938    0.0057 H   0  0  0  1  0  1  0  0  0  0  0  0
   -6.7899   -5.5421   -0.4333 H   0  0  0  1  0  1  0  0  0  0  0  0
    0.5350   -3.5863    1.2175 H   0  0  0  1  0  1  0  0  0  0  0  0
   -1.7059   -0.8825   -1.2142 H   0  0  0  1  0  1  0  0  0  0  0  0
    0.1465    0.6884   -1.2206 H   0  0  0  1  0  1  0  0  0  0  0  0
   -7.7422   -7.7977   -0.5542 H   0  0  0  1  0  1  0  0  0  0  0  0
    5.5405    0.1539    0.2119 H   0  0  0  1  0  1  0  0  0  0  0  0
    4.6911    1.5114    0.9892 H   0  0  0  1  0  1  0  0  0  0  0  0
    5.2616    0.1398    1.9698 H   0  0  0  1  0  1  0  0  0  0  0  0
  1 15  1  0  0  0  0
  1 23  1  0  0  0  0
  2 20  1  0  0  0  0
  3  9  1  0  0  0  0
  3 10  1  0  0  0  0
  4 12  2  0  0  0  0
  5 11  1  0  0  0  0
  5 12  1  0  0  0  0
  5 29  1  0  0  0  0
  6 17  1  0  0  0  0
  6 23  2  0  0  0  0
  7  8  1  0  0  0  0
  7  9  2  0  0  0  0
  7 14  1  0  0  0  0
  8 10  2  0  0  0  0
  8 13  1  0  0  0  0
  9 12  1  0  0  0  0
 10 16  1  0  0  0  0
 11 18  2  0  0  0  0
 11 19  1  0  0  0  0
 13 20  2  0  0  0  0
 13 25  1  0  0  0  0
 14 26  1  0  0  0  0
 14 27  1  0  0  0  0
 14 28  1  0  0  0  0
 15 17  2  0  0  0  0
 15 18  1  0  0  0  0
 16 22  2  0  0  0  0
 16 30  1  0  0  0  0
 17 21  1  0  0  0  0
 18 31  1  0  0  0  0
 19 21  2  0  0  0  0
 19 32  1  0  0  0  0
 20 22  1  0  0  0  0
 21 33  1  0  0  0  0
 22 34  1  0  0  0  0
 23 24  1  0  0  0  0
 24 35  1  0  0  0  0
 24 36  1  0  0  0  0
 24 37  1  0  0  0  0
M  END
> <Activity>
0.38591

> <Mapped(file=504701.csv.activities,property=Cached(PUBCHEM_COMPOUND_CID))>
0.38591

> <PUBCHEM_ATOM_DEF_STEREO_COUNT>
0

> <PUBCHEM_ATOM_UDEF_STEREO_COUNT>
0

> <PUBCHEM_BONDANNOTATIONS>
1  15  8
1  23  8
10  16  8
11  18  8
11  19  8
13  20  8
15  17  8
15  18  8
16  22  8
17  21  8
19  21  8
20  22  8
3  10  8
3  9  8
6  17  8
6  23  8
7  8  8
7  9  8
8  10  8
8  13  8

> <PUBCHEM_BOND_DEF_STEREO_COUNT>
0

> <PUBCHEM_BOND_UDEF_STEREO_COUNT>
0

> <PUBCHEM_CACTVS_COMPLEXITY>
494

> <PUBCHEM_CACTVS_HBOND_ACCEPTOR>
4

> <PUBCHEM_CACTVS_HBOND_DONOR>
1

> <PUBCHEM_CACTVS_ROTATABLE_BOND>
2

> <PUBCHEM_CACTVS_SUBSKEYS>
AAADccB7MQBAAAAAAAAAAAAAAAAAAWJAAAAwYAAAAAAAAFgB/gAAHwQQAAAADAyB3ggyx/LIFEisA6VyVAKD+KBlKjhImD32bNgOJrLktb+HOSzk1BH46YeY3+LugACAACAIAQAAAQAAQBACAAAAAAAAAA==

> <PUBCHEM_CACTVS_TAUTO_COUNT>
2

> <PUBCHEM_CACTVS_TPSA>
83.4

> <PUBCHEM_COMPONENT_COUNT>
1

> <PUBCHEM_COMPOUND_CANONICALIZED>
1

> <PUBCHEM_COMPOUND_CID>
9085542

> <PUBCHEM_COORDINATE_TYPE>
1
5
255

> <PUBCHEM_EXACT_MASS>
340.068177

> <PUBCHEM_HEAVY_ATOM_COUNT>
24

> <PUBCHEM_ISOTOPIC_ATOM_COUNT>
0

> <PUBCHEM_IUPAC_CAS_NAME>
5-fluoro-3-methyl-N-(2-methyl-1,3-benzothiazol-6-yl)-2-benzofurancarboxamide

> <PUBCHEM_IUPAC_INCHI>
InChI=1S/C18H13FN2O2S/c1-9-13-7-11(19)3-6-15(13)23-17(9)18(22)21-12-4-5-14-16(8-12)24-10(2)20-14/h3-8H,1-2H3,(H,21,22)

> <PUBCHEM_IUPAC_INCHIKEY>
UTTFFDFRBMUFAV-UHFFFAOYSA-N

> <PUBCHEM_IUPAC_NAME>
5-fluoro-3-methyl-N-(2-methyl-1,3-benzothiazol-6-yl)-1-benzofuran-2-carboxamide

> <PUBCHEM_IUPAC_OPENEYE_NAME>
5-fluoro-3-methyl-N-(2-methyl-1,3-benzothiazol-6-yl)benzofuran-2-carboxamide

> <PUBCHEM_IUPAC_SYSTEMATIC_NAME>
5-fluoranyl-3-methyl-N-(2-methyl-1,3-benzothiazol-6-yl)-1-benzofuran-2-carboxamide

> <PUBCHEM_IUPAC_TRADITIONAL_NAME>
5-fluoro-3-methyl-N-(2-methyl-1,3-benzothiazol-6-yl)coumarilamide

> <PUBCHEM_MOLECULAR_FORMULA>
C18H13FN2O2S

> <PUBCHEM_MOLECULAR_WEIGHT>
340.371423

> <PUBCHEM_MONOISOTOPIC_WEIGHT>
340.068177

> <PUBCHEM_OPENEYE_CAN_SMILES>
CC1=C(OC2=C1C=C(C=C2)F)C(=O)NC3=CC4=C(C=C3)N=C(S4)C

> <PUBCHEM_OPENEYE_ISO_SMILES>
CC1=C(OC2=C1C=C(C=C2)F)C(=O)NC3=CC4=C(C=C3)N=C(S4)C

> <PUBCHEM_TOTAL_CHARGE>
0

> <PUBCHEM_XLOGP3_AA>
4.8

$$$$
Written by BCL::WriteToMDL,2218748
MBcorina  10171218483D 1   1.00000     0.00000 
CORINA 3.49 0026  01.06.2011
 56 60  0  0  0  0  0  0  0  0999 V2000
    0.4009    1.5686    0.3689 S   0  0  0  1  0  2  0  0  0  0  0  0
   -2.0780    0.2792    0.4323 O   0  0  0  1  0  1  0  0  0  0  0  0
   -7.0838   -2.9111   -0.1451 N   0  0  0  1  0  3  0  0  0  0  0  0
   -1.6400   -1.8540    0.0078 N   0  0  0  1  0  3  0  0  0  0  0  0
    2.8789    2.8624    0.3064 N   0  0  0  1  0  3  0  0  0  0  0  0
    2.9898    0.7415   -0.0771 N   0  0  0  1  0  2  0  0  0  0  0  0
    4.1889    1.1995   -0.1396 N   0  0  0  1  0  2  0  0  0  0  0  0
    5.2159    4.6855    0.3380 N   0  0  0  1  0  2  0  0  0  0  0  0
    7.6866    3.6677   -0.1376 N   0  0  0  1  0  2  0  0  0  0  0  0
   -5.7060   -2.8421   -0.0176 C   0  0  0  1  0  3  0  0  0  0  0  0
   -5.2772   -1.6061   -0.5226 C   0  0  0  1  0  3  0  0  0  0  0  0
   -7.5702   -1.7514   -0.7211 C   0  0  0  1  0  3  0  0  0  0  0  0
   -6.4872   -0.8977   -0.9794 C   0  0  0  1  0  3  0  0  0  0  0  0
   -7.9068   -4.0514    0.2655 C   0  0  0  1  0  4  0  0  0  0  0  0
   -3.9234   -1.2786   -0.5132 C   0  0  0  1  0  3  0  0  0  0  0  0
   -4.7676   -3.7355    0.4909 C   0  0  0  1  0  3  0  0  0  0  0  0
   -8.8567   -1.3387   -1.0537 C   0  0  0  1  0  3  0  0  0  0  0  0
   -6.7042    0.3478   -1.5633 C   0  0  0  1  0  3  0  0  0  0  0  0
   -3.0033   -2.1783   -0.0040 C   0  0  0  1  0  3  0  0  0  0  0  0
   -3.4305   -3.4050    0.4969 C   0  0  0  1  0  3  0  0  0  0  0  0
   -8.3439   -3.8674    1.7201 C   0  0  0  1  0  4  0  0  0  0  0  0
   -9.0576   -0.1030   -1.6305 C   0  0  0  1  0  3  0  0  0  0  0  0
   -7.9862    0.7384   -1.8864 C   0  0  0  1  0  3  0  0  0  0  0  0
   -1.2530   -0.5754    0.1865 C   0  0  0  1  0  3  0  0  0  0  0  0
    0.2045   -0.2075    0.0809 C   0  0  0  1  0  4  0  0  0  0  0  0
    2.3764    4.2070    0.5992 C   0  0  0  1  0  4  0  0  0  0  0  0
    2.1477    1.7162    0.1910 C   0  0  0  1  0  3  0  0  0  0  0  0
    4.1863    2.4933    0.0844 C   0  0  0  1  0  3  0  0  0  0  0  0
    2.3655    4.4289    2.1130 C   0  0  0  1  0  4  0  0  0  0  0  0
    5.3643    3.3848    0.0956 C   0  0  0  1  0  3  0  0  0  0  0  0
    6.6390    2.8663   -0.1486 C   0  0  0  1  0  3  0  0  0  0  0  0
    6.2721    5.4776    0.3464 C   0  0  0  1  0  3  0  0  0  0  0  0
    7.5321    4.9590    0.1039 C   0  0  0  1  0  3  0  0  0  0  0  0
   -8.7877   -4.1125   -0.3736 H   0  0  0  1  0  1  0  0  0  0  0  0
   -7.3270   -4.9698    0.1737 H   0  0  0  1  0  1  0  0  0  0  0  0
   -3.5931   -0.3268   -0.9021 H   0  0  0  1  0  1  0  0  0  0  0  0
   -5.0886   -4.6897    0.8819 H   0  0  0  1  0  1  0  0  0  0  0  0
   -9.6985   -1.9870   -0.8597 H   0  0  0  1  0  1  0  0  0  0  0  0
   -5.8711    1.0056   -1.7621 H   0  0  0  1  0  1  0  0  0  0  0  0
   -2.7078   -4.1029    0.8933 H   0  0  0  1  0  1  0  0  0  0  0  0
   -8.9563   -4.7158    2.0256 H   0  0  0  1  0  1  0  0  0  0  0  0
   -7.4630   -3.8064    2.3592 H   0  0  0  1  0  1  0  0  0  0  0  0
   -8.9237   -2.9490    1.8119 H   0  0  0  1  0  1  0  0  0  0  0  0
  -10.0584    0.2116   -1.8871 H   0  0  0  1  0  1  0  0  0  0  0  0
   -8.1564    1.7040   -2.3393 H   0  0  0  1  0  1  0  0  0  0  0  0
   -0.9749   -2.5497   -0.1127 H   0  0  0  1  0  1  0  0  0  0  0  0
    0.5710   -0.4568   -0.9150 H   0  0  0  1  0  1  0  0  0  0  0  0
    0.7741   -0.7617    0.8269 H   0  0  0  1  0  1  0  0  0  0  0  0
    3.0232    4.9472    0.1281 H   0  0  0  1  0  1  0  0  0  0  0  0
    1.3635    4.3091    0.2097 H   0  0  0  1  0  1  0  0  0  0  0  0
    1.9916    5.4293    2.3308 H   0  0  0  1  0  1  0  0  0  0  0  0
    1.7187    3.6888    2.5840 H   0  0  0  1  0  1  0  0  0  0  0  0
    3.3784    4.3268    2.5025 H   0  0  0  1  0  1  0  0  0  0  0  0
    6.7658    1.8122   -0.3462 H   0  0  0  1  0  1  0  0  0  0  0  0
    6.1526    6.5328    0.5429 H   0  0  0  1  0  1  0  0  0  0  0  0
    8.3929    5.6113    0.1123 H   0  0  0  1  0  1  0  0  0  0  0  0
  1 25  1  0  0  0  0
  1 27  1  0  0  0  0
  2 24  2  0  0  0  0
  3 10  1  0  0  0  0
  3 12  1  0  0  0  0
  3 14  1  0  0  0  0
  4 19  1  0  0  0  0
  4 24  1  0  0  0  0
  4 46  1  0  0  0  0
  5 26  1  0  0  0  0
  5 27  1  0  0  0  0
  5 28  1  0  0  0  0
  6  7  1  0  0  0  0
  6 27  2  0  0  0  0
  7 28  2  0  0  0  0
  8 30  2  0  0  0  0
  8 32  1  0  0  0  0
  9 31  2  0  0  0  0
  9 33  1  0  0  0  0
 10 11  2  0  0  0  0
 10 16  1  0  0  0  0
 11 13  1  0  0  0  0
 11 15  1  0  0  0  0
 12 13  1  0  0  0  0
 12 17  2  0  0  0  0
 13 18  2  0  0  0  0
 14 21  1  0  0  0  0
 14 34  1  0  0  0  0
 14 35  1  0  0  0  0
 15 19  2  0  0  0  0
 15 36  1  0  0  0  0
 16 20  2  0  0  0  0
 16 37  1  0  0  0  0
 17 22  1  0  0  0  0
 17 38  1  0  0  0  0
 18 23  1  0  0  0  0
 18 39  1  0  0  0  0
 19 20  1  0  0  0  0
 20 40  1  0  0  0  0
 21 41  1  0  0  0  0
 21 42  1  0  0  0  0
 21 43  1  0  0  0  0
 22 23  2  0  0  0  0
 22 44  1  0  0  0  0
 23 45  1  0  0  0  0
 24 25  1  0  0  0  0
 25 47  1  0  0  0  0
 25 48  1  0  0  0  0
 26 29  1  0  0  0  0
 26 49  1  0  0  0  0
 26 50  1  0  0  0  0
 28 30  1  0  0  0  0
 29 51  1  0  0  0  0
 29 52  1  0  0  0  0
 29 53  1  0  0  0  0
 30 31  1  0  0  0  0
 31 54  1  0  0  0  0
 32 33  2  0  0  0  0
 32 55  1  0  0  0  0
 33 56  1  0  0  0  0
M  END
> <Activity>
0.05478

> <Mapped(file=504701.csv.activities,property=Cached(PUBCHEM_COMPOUND_CID))>
0.05478

> <PUBCHEM_ATOM_DEF_STEREO_COUNT>
0

> <PUBCHEM_ATOM_UDEF_STEREO_COUNT>
0

> <PUBCHEM_BONDANNOTATIONS>
10  11  8
10  16  8
11  13  8
11  15  8
12  13  8
12  17  8
13  18  8
15  19  8
16  20  8
17  22  8
18  23  8
19  20  8
22  23  8
3  10  8
3  12  8
30  31  8
32  33  8
5  27  8
5  28  8
6  27  8
6  7  8
7  28  8
8  30  8
8  32  8
9  31  8
9  33  8

> <PUBCHEM_BOND_DEF_STEREO_COUNT>
0

> <PUBCHEM_BOND_UDEF_STEREO_COUNT>
0

> <PUBCHEM_CACTVS_COMPLEXITY>
669

> <PUBCHEM_CACTVS_HBOND_ACCEPTOR>
4

> <PUBCHEM_CACTVS_HBOND_DONOR>
1

> <PUBCHEM_CACTVS_ROTATABLE_BOND>
7

> <PUBCHEM_CACTVS_SUBSKEYS>
AAADceB7oABAAAAAAAAAAAAAAAAAAWLAAAA8YIAAAAAAAFgB/gAAHgQYAAAADAjF3wS/0PfMEAiqAzd3dACS0C9xErAd2CA4dJiIaOLA2ZGUIAhgnALIyAcQgMAOgACAQAACAAAAAQCAAAQAAAAAAAAAAA==

> <PUBCHEM_CACTVS_TAUTO_COUNT>
3

> <PUBCHEM_CACTVS_TPSA>
116

> <PUBCHEM_COMPONENT_COUNT>
1

> <PUBCHEM_COMPOUND_CANONICALIZED>
1

> <PUBCHEM_COMPOUND_CID>
2218748

> <PUBCHEM_COORDINATE_TYPE>
1
5
255

> <PUBCHEM_EXACT_MASS>
457.168479

> <PUBCHEM_HEAVY_ATOM_COUNT>
33

> <PUBCHEM_ISOTOPIC_ATOM_COUNT>
0

> <PUBCHEM_IUPAC_CAS_NAME>
N-(9-ethyl-3-carbazolyl)-2-[[4-ethyl-5-(2-pyrazinyl)-1,2,4-triazol-3-yl]thio]acetamide

> <PUBCHEM_IUPAC_INCHI>
InChI=1S/C24H23N7OS/c1-3-30-20-8-6-5-7-17(20)18-13-16(9-10-21(18)30)27-22(32)15-33-24-29-28-23(31(24)4-2)19-14-25-11-12-26-19/h5-14H,3-4,15H2,1-2H3,(H,27,32)

> <PUBCHEM_IUPAC_INCHIKEY>
FZQRSOXVSAENKX-UHFFFAOYSA-N

> <PUBCHEM_IUPAC_NAME>
N-(9-ethylcarbazol-3-yl)-2-[(4-ethyl-5-pyrazin-2-yl-1,2,4-triazol-3-yl)sulfanyl]acetamide

> <PUBCHEM_IUPAC_OPENEYE_NAME>
N-(9-ethylcarbazol-3-yl)-2-[(4-ethyl-5-pyrazin-2-yl-1,2,4-triazol-3-yl)sulfanyl]acetamide

> <PUBCHEM_IUPAC_SYSTEMATIC_NAME>
N-(9-ethylcarbazol-3-yl)-2-[(4-ethyl-5-pyrazin-2-yl-1,2,4-triazol-3-yl)sulfanyl]ethanamide

> <PUBCHEM_IUPAC_TRADITIONAL_NAME>
N-(9-ethylcarbazol-3-yl)-2-[(4-ethyl-5-pyrazin-2-yl-1,2,4-triazol-3-yl)thio]acetamide

> <PUBCHEM_MOLECULAR_FORMULA>
C24H23N7OS

> <PUBCHEM_MOLECULAR_WEIGHT>
457.55072

> <PUBCHEM_MONOISOTOPIC_WEIGHT>
457.168479

> <PUBCHEM_OPENEYE_CAN_SMILES>
CCN1C2=C(C=C(C=C2)NC(=O)CSC3=NN=C(N3CC)C4=NC=CN=C4)C5=CC=CC=C51

> <PUBCHEM_OPENEYE_ISO_SMILES>
CCN1C2=C(C=C(C=C2)NC(=O)CSC3=NN=C(N3CC)C4=NC=CN=C4)C5=CC=CC=C51

> <PUBCHEM_TOTAL_CHARGE>
0

> <PUBCHEM_XLOGP3_AA>
2.7

$$$$
Written by BCL::WriteToMDL,24818804
MBcorina  10171218483D 1   1.00000     0.00000 
CORINA 3.49 0026  01.06.2011
 38 41  0  0  0  0  0  0  0  0999 V2000
   -0.0162    1.3437    0.0094 O   0  0  0  1  0  2  0  0  0  0  0  0
    2.2983   -2.7990    0.6397 O   0  0  0  1  0  2  0  0  0  0  0  0
    3.3725   -0.4805    1.1336 O   0  0  0  1  0  1  0  0  0  0  0  0
    6.7272    7.1538   -0.3134 N   0  0  0  1  0  2  0  0  0  0  0  0
    1.1712   -0.7157    0.3175 C   0  0  0  1  0  3  0  0  0  0  0  0
    2.3562    1.4906    0.3163 C   0  0  0  1  0  3  0  0  0  0  0  0
    0.0021   -0.0041    0.0020 C   0  0  0  1  0  3  0  0  0  0  0  0
    1.1170    2.0737    0.0025 C   0  0  0  1  0  3  0  0  0  0  0  0
    2.3938    0.0462    0.6369 C   0  0  0  1  0  3  0  0  0  0  0  0
    1.1705   -2.1151    0.3221 C   0  0  0  1  0  3  0  0  0  0  0  0
    3.5187    2.2535    0.3192 C   0  0  0  1  0  3  0  0  0  0  0  0
   -1.1498   -0.7129   -0.3208 C   0  0  0  1  0  3  0  0  0  0  0  0
    1.0663    3.4293   -0.3181 C   0  0  0  1  0  3  0  0  0  0  0  0
    3.4501    3.6085   -0.0009 C   0  0  0  1  0  3  0  0  0  0  0  0
    0.0078   -2.7959   -0.0005 C   0  0  0  1  0  3  0  0  0  0  0  0
    2.2135    4.1859   -0.3206 C   0  0  0  1  0  3  0  0  0  0  0  0
   -1.1406   -2.0927   -0.3214 C   0  0  0  1  0  3  0  0  0  0  0  0
    4.6384    4.4076   -0.0030 C   0  0  0  1  0  2  0  0  0  0  0  0
    2.2184   -4.2257    0.6223 C   0  0  0  1  0  4  0  0  0  0  0  0
    5.6126    5.0627   -0.0048 C   0  0  0  1  0  2  0  0  0  0  0  0
    6.8009    5.8617   -0.0069 C   0  0  0  1  0  3  0  0  0  0  0  0
    8.0297    5.2784    0.3125 C   0  0  0  1  0  3  0  0  0  0  0  0
    9.1679    6.0642    0.3058 C   0  0  0  1  0  3  0  0  0  0  0  0
    9.0444    7.4081   -0.0196 C   0  0  0  1  0  3  0  0  0  0  0  0
    7.7971    7.9216   -0.3259 C   0  0  0  1  0  3  0  0  0  0  0  0
    4.4670    1.8000    0.5674 H   0  0  0  1  0  1  0  0  0  0  0  0
   -2.0557   -0.1811   -0.5718 H   0  0  0  1  0  1  0  0  0  0  0  0
    0.1202    3.8875   -0.5662 H   0  0  0  1  0  1  0  0  0  0  0  0
   -0.0025   -3.8759   -0.0020 H   0  0  0  1  0  1  0  0  0  0  0  0
    2.1619    5.2350   -0.5717 H   0  0  0  1  0  1  0  0  0  0  0  0
   -2.0416   -2.6313   -0.5752 H   0  0  0  1  0  1  0  0  0  0  0  0
    1.4645   -4.5561    1.3369 H   0  0  0  1  0  1  0  0  0  0  0  0
    1.9437   -4.5621   -0.3774 H   0  0  0  1  0  1  0  0  0  0  0  0
    3.1862   -4.6471    0.8943 H   0  0  0  1  0  1  0  0  0  0  0  0
    8.0898    4.2292    0.5614 H   0  0  0  1  0  1  0  0  0  0  0  0
   10.1317    5.6415    0.5487 H   0  0  0  1  0  1  0  0  0  0  0  0
    9.9148    8.0474   -0.0331 H   0  0  0  1  0  1  0  0  0  0  0  0
    7.6994    8.9667   -0.5800 H   0  0  0  1  0  1  0  0  0  0  0  0
  1  7  1  0  0  0  0
  1  8  1  0  0  0  0
  2 10  1  0  0  0  0
  2 19  1  0  0  0  0
  3  9  2  0  0  0  0
  4 21  1  0  0  0  0
  4 25  2  0  0  0  0
  5  7  2  0  0  0  0
  5  9  1  0  0  0  0
  5 10  1  0  0  0  0
  6  8  2  0  0  0  0
  6  9  1  0  0  0  0
  6 11  1  0  0  0  0
  7 12  1  0  0  0  0
  8 13  1  0  0  0  0
 10 15  2  0  0  0  0
 11 14  2  0  0  0  0
 11 26  1  0  0  0  0
 12 17  2  0  0  0  0
 12 27  1  0  0  0  0
 13 16  2  0  0  0  0
 13 28  1  0  0  0  0
 14 16  1  0  0  0  0
 14 18  1  0  0  0  0
 15 17  1  0  0  0  0
 15 29  1  0  0  0  0
 16 30  1  0  0  0  0
 17 31  1  0  0  0  0
 18 20  3  0  0  0  0
 19 32  1  0  0  0  0
 19 33  1  0  0  0  0
 19 34  1  0  0  0  0
 20 21  1  0  0  0  0
 21 22  2  0  0  0  0
 22 23  1  0  0  0  0
 22 35  1  0  0  0  0
 23 24  2  0  0  0  0
 23 36  1  0  0  0  0
 24 25  1  0  0  0  0
 24 37  1  0  0  0  0
 25 38  1  0  0  0  0
M  END
> <Activity>
0.88128

> <Mapped(file=504701.csv.activities,property=Cached(PUBCHEM_COMPOUND_CID))>
0.88128

> <PUBCHEM_ATOM_DEF_STEREO_COUNT>
0

> <PUBCHEM_ATOM_UDEF_STEREO_COUNT>
0

> <PUBCHEM_BONDANNOTATIONS>
1  7  8
1  8  8
10  15  8
11  14  8
12  17  8
13  16  8
14  16  8
15  17  8
21  22  8
22  23  8
23  24  8
24  25  8
4  21  8
4  25  8
5  10  8
5  7  8
5  9  8
6  11  8
6  8  8
6  9  8
7  12  8
8  13  8

> <PUBCHEM_BOND_DEF_STEREO_COUNT>
0

> <PUBCHEM_BOND_UDEF_STEREO_COUNT>
0

> <PUBCHEM_CACTVS_COMPLEXITY>
562

> <PUBCHEM_CACTVS_HBOND_ACCEPTOR>
4

> <PUBCHEM_CACTVS_HBOND_DONOR>
0

> <PUBCHEM_CACTVS_ROTATABLE_BOND>
3

> <PUBCHEM_CACTVS_SUBSKEYS>
AAADccB6MAAAAAAAAAAAAAAAAAAAAAAAAAA8aIEAAAAAAACR0AAAHgAAAAAADAzBngY+hpIIFADoE7R3RAiCiCA1IiAI2CE+bNgMJ/bEtZuGOWjl4BXI6YeY6OyOIAACCAAIAABAAAQQABAAAAAAAAAAAA==

> <PUBCHEM_CACTVS_TAUTO_COUNT>
1

> <PUBCHEM_CACTVS_TPSA>
48.4

> <PUBCHEM_COMPONENT_COUNT>
1

> <PUBCHEM_COMPOUND_CANONICALIZED>
1

> <PUBCHEM_COMPOUND_CID>
24818804

> <PUBCHEM_COORDINATE_TYPE>
1
5
255

> <PUBCHEM_EXACT_MASS>
327.089543

> <PUBCHEM_HEAVY_ATOM_COUNT>
25

> <PUBCHEM_ISOTOPIC_ATOM_COUNT>
0

> <PUBCHEM_IUPAC_CAS_NAME>
1-methoxy-7-[2-(2-pyridinyl)ethynyl]-9-xanthenone

> <PUBCHEM_IUPAC_INCHI>
InChI=1S/C21H13NO3/c1-24-18-6-4-7-19-20(18)21(23)16-13-14(9-11-17(16)25-19)8-10-15-5-2-3-12-22-15/h2-7,9,11-13H,1H3

> <PUBCHEM_IUPAC_INCHIKEY>
RSDCCDQDEKHOBB-UHFFFAOYSA-N

> <PUBCHEM_IUPAC_NAME>
1-methoxy-7-(2-pyridin-2-ylethynyl)xanthen-9-one

> <PUBCHEM_IUPAC_OPENEYE_NAME>
1-methoxy-7-[2-(2-pyridyl)ethynyl]xanthen-9-one

> <PUBCHEM_IUPAC_SYSTEMATIC_NAME>
1-methoxy-7-(2-pyridin-2-ylethynyl)xanthen-9-one

> <PUBCHEM_IUPAC_TRADITIONAL_NAME>
1-methoxy-7-[2-(2-pyridyl)ethynyl]xanthone

> <PUBCHEM_MOLECULAR_FORMULA>
C21H13NO3

> <PUBCHEM_MOLECULAR_WEIGHT>
327.33282

> <PUBCHEM_MONOISOTOPIC_WEIGHT>
327.089543

> <PUBCHEM_OPENEYE_CAN_SMILES>
COC1=CC=CC2=C1C(=O)C3=C(O2)C=CC(=C3)C#CC4=CC=CC=N4

> <PUBCHEM_OPENEYE_ISO_SMILES>
COC1=CC=CC2=C1C(=O)C3=C(O2)C=CC(=C3)C#CC4=CC=CC=N4

> <PUBCHEM_TOTAL_CHARGE>
0

> <PUBCHEM_XLOGP3_AA>
3.9

$$$$
Written by BCL::WriteToMDL,2124414
MBcorina  10171218483D 1   1.00000     0.00000 
CORINA 3.49 0026  01.06.2011
 43 46  0  0  0  0  0  0  0  0999 V2000
   -0.0172    1.4168    0.0098 S   0  0  0  1  0  4  0  0  0  0  0  0
    0.0021   -0.0041    0.0020 O   0  0  0  1  0  1  0  0  0  0  0  0
    1.1616    2.2103    0.0028 O   0  0  0  1  0  1  0  0  0  0  0  0
   -1.7981    1.5421   -6.1614 O   0  0  0  1  0  2  0  0  0  0  0  0
   -2.9368    4.4813    0.0557 O   0  0  0  1  0  1  0  0  0  0  0  0
   -3.2034    2.6202  -10.1172 O   0  0  0  1  0  2  0  0  0  0  0  0
   -0.1838    0.3684   -5.1913 O   0  0  0  1  0  1  0  0  0  0  0  0
   -3.9826    1.7189   -9.9107 N   0  0  0  1  0  2  0  0  0  0  0  0
   -0.9576    1.9097   -1.3962 C   0  0  0  1  0  3  0  0  0  0  0  0
   -0.9303    1.8944    1.4385 C   0  0  0  1  0  3  0  0  0  0  0  0
   -1.9909    2.8359   -1.2609 C   0  0  0  1  0  3  0  0  0  0  0  0
   -1.9664    2.8220    1.3327 C   0  0  0  1  0  3  0  0  0  0  0  0
   -2.3273    3.4301    0.0438 C   0  0  0  1  0  3  0  0  0  0  0  0
   -0.6643    1.3721   -2.6319 C   0  0  0  1  0  3  0  0  0  0  0  0
   -2.7293    3.2147   -2.3903 C   0  0  0  1  0  3  0  0  0  0  0  0
   -1.4011    1.7516   -3.7545 C   0  0  0  1  0  3  0  0  0  0  0  0
   -0.6158    1.3449    2.6645 C   0  0  0  1  0  3  0  0  0  0  0  0
   -2.6802    3.1845    2.4827 C   0  0  0  1  0  3  0  0  0  0  0  0
   -2.4374    2.6783   -3.6230 C   0  0  0  1  0  3  0  0  0  0  0  0
   -1.3257    1.7097    3.7948 C   0  0  0  1  0  3  0  0  0  0  0  0
   -2.3565    2.6281    3.7008 C   0  0  0  1  0  3  0  0  0  0  0  0
   -1.0855    1.1742   -5.0793 C   0  0  0  1  0  3  0  0  0  0  0  0
   -2.3324    1.4633   -8.5165 C   0  0  0  1  0  3  0  0  0  0  0  0
   -1.4330    0.9350   -7.4288 C   0  0  0  1  0  4  0  0  0  0  0  0
   -2.1423    2.5509   -9.3011 C   0  0  0  1  0  3  0  0  0  0  0  0
   -3.5696    0.9378   -8.9548 C   0  0  0  1  0  3  0  0  0  0  0  0
   -0.9691    3.4960   -9.2642 C   0  0  0  1  0  4  0  0  0  0  0  0
   -4.2715   -0.2841   -8.4206 C   0  0  0  1  0  4  0  0  0  0  0  0
    0.1380    0.6558   -2.7311 H   0  0  0  1  0  1  0  0  0  0  0  0
   -3.5317    3.9309   -2.2923 H   0  0  0  1  0  1  0  0  0  0  0  0
    0.1872    0.6269    2.7421 H   0  0  0  1  0  1  0  0  0  0  0  0
   -3.4850    3.9014    2.4142 H   0  0  0  1  0  1  0  0  0  0  0  0
   -3.0100    2.9741   -4.4896 H   0  0  0  1  0  1  0  0  0  0  0  0
   -1.0754    1.2762    4.7519 H   0  0  0  1  0  1  0  0  0  0  0  0
   -2.9083    2.9104    4.5853 H   0  0  0  1  0  1  0  0  0  0  0  0
   -0.3969    1.1793   -7.6636 H   0  0  0  1  0  1  0  0  0  0  0  0
   -1.5443   -0.1470   -7.3588 H   0  0  0  1  0  1  0  0  0  0  0  0
   -1.1041    4.2723  -10.0174 H   0  0  0  1  0  1  0  0  0  0  0  0
   -0.9029    3.9546   -8.2776 H   0  0  0  1  0  1  0  0  0  0  0  0
   -0.0518    2.9448   -9.4710 H   0  0  0  1  0  1  0  0  0  0  0  0
   -3.9492   -1.1621   -8.9805 H   0  0  0  1  0  1  0  0  0  0  0  0
   -4.0238   -0.4140   -7.3671 H   0  0  0  1  0  1  0  0  0  0  0  0
   -5.3491   -0.1602   -8.5280 H   0  0  0  1  0  1  0  0  0  0  0  0
  1  2  2  0  0  0  0
  1  3  2  0  0  0  0
  1  9  1  0  0  0  0
  1 10  1  0  0  0  0
  4 22  1  0  0  0  0
  4 24  1  0  0  0  0
  5 13  2  0  0  0  0
  6  8  1  0  0  0  0
  6 25  1  0  0  0  0
  7 22  2  0  0  0  0
  8 26  2  0  0  0  0
  9 11  2  0  0  0  0
  9 14  1  0  0  0  0
 10 12  1  0  0  0  0
 10 17  2  0  0  0  0
 11 13  1  0  0  0  0
 11 15  1  0  0  0  0
 12 13  1  0  0  0  0
 12 18  2  0  0  0  0
 14 16  2  0  0  0  0
 14 29  1  0  0  0  0
 15 19  2  0  0  0  0
 15 30  1  0  0  0  0
 16 19  1  0  0  0  0
 16 22  1  0  0  0  0
 17 20  1  0  0  0  0
 17 31  1  0  0  0  0
 18 21  1  0  0  0  0
 18 32  1  0  0  0  0
 19 33  1  0  0  0  0
 20 21  2  0  0  0  0
 20 34  1  0  0  0  0
 21 35  1  0  0  0  0
 23 24  1  0  0  0  0
 23 25  2  0  0  0  0
 23 26  1  0  0  0  0
 24 36  1  0  0  0  0
 24 37  1  0  0  0  0
 25 27  1  0  0  0  0
 26 28  1  0  0  0  0
 27 38  1  0  0  0  0
 27 39  1  0  0  0  0
 27 40  1  0  0  0  0
 28 41  1  0  0  0  0
 28 42  1  0  0  0  0
 28 43  1  0  0  0  0
M  END
> <Activity>
1.202

> <Mapped(file=504701.csv.activities,property=Cached(PUBCHEM_COMPOUND_CID))>
1.202

> <PUBCHEM_ATOM_DEF_STEREO_COUNT>
0

> <PUBCHEM_ATOM_UDEF_STEREO_COUNT>
0

> <PUBCHEM_BONDANNOTATIONS>
10  12  8
10  17  8
11  15  8
12  18  8
14  16  8
15  19  8
16  19  8
17  20  8
18  21  8
20  21  8
23  25  8
23  26  8
6  25  8
6  8  8
8  26  8
9  11  8
9  14  8

> <PUBCHEM_BOND_DEF_STEREO_COUNT>
0

> <PUBCHEM_BOND_UDEF_STEREO_COUNT>
0

> <PUBCHEM_CACTVS_COMPLEXITY>
732

> <PUBCHEM_CACTVS_HBOND_ACCEPTOR>
7

> <PUBCHEM_CACTVS_HBOND_DONOR>
0

> <PUBCHEM_CACTVS_ROTATABLE_BOND>
4

> <PUBCHEM_CACTVS_SUBSKEYS>
AAADccB6OABAAAAAAAAAAAAAAAAAAWAAAAA0YIAAAAAAAACR0AAAHgQEAAAADAyh3gIyjZAQBAqpA6TySnDCAAAkKBAomDk0TNoIJz6gtZqCMYBn4Bko6ceIyPCOQAAAgAAEAACAAAEAAAgAAAAAAAAAAA==

> <PUBCHEM_CACTVS_TAUTO_COUNT>
1

> <PUBCHEM_CACTVS_TPSA>
112

> <PUBCHEM_COMPONENT_COUNT>
1

> <PUBCHEM_COMPOUND_CANONICALIZED>
1

> <PUBCHEM_COMPOUND_CID>
2124414

> <PUBCHEM_COORDINATE_TYPE>
1
5
255

> <PUBCHEM_EXACT_MASS>
397.062008

> <PUBCHEM_HEAVY_ATOM_COUNT>
28

> <PUBCHEM_ISOTOPIC_ATOM_COUNT>
0

> <PUBCHEM_IUPAC_CAS_NAME>
9,10,10-trioxo-3-thioxanthenecarboxylic acid (3,5-dimethyl-4-isoxazolyl)methyl ester

> <PUBCHEM_IUPAC_INCHI>
InChI=1S/C20H15NO6S/c1-11-16(12(2)27-21-11)10-26-20(23)13-7-8-15-18(9-13)28(24,25)17-6-4-3-5-14(17)19(15)22/h3-9H,10H2,1-2H3

> <PUBCHEM_IUPAC_INCHIKEY>
MTCDQQWJRCDICU-UHFFFAOYSA-N

> <PUBCHEM_IUPAC_NAME>
(3,5-dimethyl-1,2-oxazol-4-yl)methyl 9,10,10-trioxothioxanthene-3-carboxylate

> <PUBCHEM_IUPAC_OPENEYE_NAME>
(3,5-dimethylisoxazol-4-yl)methyl 9,10,10-trioxothioxanthene-3-carboxylate

> <PUBCHEM_IUPAC_SYSTEMATIC_NAME>
(3,5-dimethyl-1,2-oxazol-4-yl)methyl 9,10,10-tris(oxidanylidene)thioxanthene-3-carboxylate

> <PUBCHEM_IUPAC_TRADITIONAL_NAME>
9,10,10-triketothioxanthene-3-carboxylic acid (3,5-dimethylisoxazol-4-yl)methyl ester

> <PUBCHEM_MOLECULAR_FORMULA>
C20H15NO6S

> <PUBCHEM_MOLECULAR_WEIGHT>
397.4012

> <PUBCHEM_MONOISOTOPIC_WEIGHT>
397.062008

> <PUBCHEM_OPENEYE_CAN_SMILES>
CC1=C(C(=NO1)C)COC(=O)C2=CC3=C(C=C2)C(=O)C4=CC=CC=C4S3(=O)=O

> <PUBCHEM_OPENEYE_ISO_SMILES>
CC1=C(C(=NO1)C)COC(=O)C2=CC3=C(C=C2)C(=O)C4=CC=CC=C4S3(=O)=O

> <PUBCHEM_TOTAL_CHARGE>
0

> <PUBCHEM_XLOGP3_AA>
2.8

$$$$
Written by BCL::WriteToMDL,2931287
MBcorina  10171218483D 1   1.00000     0.00000 
CORINA 3.49 0026  01.06.2011
 56 57  0  0  0  0  0  0  0  0999 V2000
   -0.0163    1.3523    0.0095 O   0  0  0  1  0  2  0  0  0  0  0  0
  -13.4670   -2.6491    0.1176 O   0  0  0  1  0  2  0  0  0  0  0  0
   -2.5158    1.2036    0.0333 O   0  0  0  1  0  1  0  0  0  0  0  0
  -10.9675   -2.5004    0.0946 O   0  0  0  1  0  1  0  0  0  0  0  0
   -3.6459   -0.7086    0.0335 N   0  0  0  1  0  3  0  0  0  0  0  0
   -9.8374   -0.5882    0.0944 N   0  0  0  1  0  3  0  0  0  0  0  0
   -6.0719   -1.0178    0.0553 C   0  0  0  1  0  4  0  0  0  0  0  0
   -7.4115   -0.2789    0.0726 C   0  0  0  1  0  4  0  0  0  0  0  0
   -4.9286   -0.0011    0.0500 C   0  0  0  1  0  4  0  0  0  0  0  0
   -8.5547   -1.2957    0.0779 C   0  0  0  1  0  4  0  0  0  0  0  0
   -2.4921   -0.0120    0.0262 C   0  0  0  1  0  3  0  0  0  0  0  0
  -10.9912   -1.2848    0.1017 C   0  0  0  1  0  3  0  0  0  0  0  0
  -12.2830   -0.5722    0.1183 C   0  0  0  1  0  3  0  0  0  0  0  0
   -1.2003   -0.7245    0.0096 C   0  0  0  1  0  3  0  0  0  0  0  0
  -13.4854   -1.2927    0.1259 C   0  0  0  1  0  3  0  0  0  0  0  0
    0.0021   -0.0041    0.0020 C   0  0  0  1  0  3  0  0  0  0  0  0
  -12.3149    0.8240    0.1323 C   0  0  0  1  0  3  0  0  0  0  0  0
   -1.1683   -2.1208    0.0072 C   0  0  0  1  0  3  0  0  0  0  0  0
  -14.6938   -0.6126    0.1414 C   0  0  0  1  0  3  0  0  0  0  0  0
    1.2104   -0.6841   -0.0136 C   0  0  0  1  0  3  0  0  0  0  0  0
    0.0417   -2.7805   -0.0084 C   0  0  0  1  0  3  0  0  0  0  0  0
  -13.5249    1.4837    0.1477 C   0  0  0  1  0  3  0  0  0  0  0  0
    1.2276   -2.0650   -0.0217 C   0  0  0  1  0  3  0  0  0  0  0  0
  -14.7109    0.7682    0.1494 C   0  0  0  1  0  3  0  0  0  0  0  0
  -14.7313   -3.3151    0.1262 C   0  0  0  1  0  4  0  0  0  0  0  0
    1.2480    2.0184    0.0010 C   0  0  0  1  0  4  0  0  0  0  0  0
  -14.5103   -4.8290    0.1150 C   0  0  0  1  0  4  0  0  0  0  0  0
    1.0269    3.5323    0.0112 C   0  0  0  1  0  4  0  0  0  0  0  0
   -5.9932   -1.6483    0.9410 H   0  0  0  1  0  1  0  0  0  0  0  0
   -6.0106   -1.6382   -0.8388 H   0  0  0  1  0  1  0  0  0  0  0  0
   -7.4728    0.3414    0.9667 H   0  0  0  1  0  1  0  0  0  0  0  0
   -7.4901    0.3515   -0.8131 H   0  0  0  1  0  1  0  0  0  0  0  0
   -4.9899    0.6193    0.9441 H   0  0  0  1  0  1  0  0  0  0  0  0
   -5.0072    0.6294   -0.8357 H   0  0  0  1  0  1  0  0  0  0  0  0
   -8.4761   -1.9262    0.9636 H   0  0  0  1  0  1  0  0  0  0  0  0
   -8.4934   -1.9161   -0.8162 H   0  0  0  1  0  1  0  0  0  0  0  0
   -3.6270   -1.6784    0.0278 H   0  0  0  1  0  1  0  0  0  0  0  0
   -9.8564    0.3816    0.1001 H   0  0  0  1  0  1  0  0  0  0  0  0
   -2.0905   -2.6829    0.0178 H   0  0  0  1  0  1  0  0  0  0  0  0
  -11.3926    1.3860    0.1314 H   0  0  0  1  0  1  0  0  0  0  0  0
    2.1393   -0.1332   -0.0199 H   0  0  0  1  0  1  0  0  0  0  0  0
  -15.6226   -1.1636    0.1470 H   0  0  0  1  0  1  0  0  0  0  0  0
    0.0654   -3.8603   -0.0099 H   0  0  0  1  0  1  0  0  0  0  0  0
  -13.5485    2.5634    0.1589 H   0  0  0  1  0  1  0  0  0  0  0  0
    2.1713   -2.5901   -0.0339 H   0  0  0  1  0  1  0  0  0  0  0  0
  -15.6546    1.2933    0.1615 H   0  0  0  1  0  1  0  0  0  0  0  0
    1.8174    1.7283    0.8840 H   0  0  0  1  0  1  0  0  0  0  0  0
    1.8004    1.7379   -0.8958 H   0  0  0  1  0  1  0  0  0  0  0  0
  -15.2834   -3.0352    1.0233 H   0  0  0  1  0  1  0  0  0  0  0  0
  -15.3010   -3.0246   -0.7565 H   0  0  0  1  0  1  0  0  0  0  0  0
  -13.9582   -5.1090   -0.7822 H   0  0  0  1  0  1  0  0  0  0  0  0
  -13.9406   -5.1196    0.9976 H   0  0  0  1  0  1  0  0  0  0  0  0
    0.4575    3.8223   -0.8718 H   0  0  0  1  0  1  0  0  0  0  0  0
    0.4745    3.8128    0.9080 H   0  0  0  1  0  1  0  0  0  0  0  0
    1.9913    4.0403    0.0047 H   0  0  0  1  0  1  0  0  0  0  0  0
  -15.4747   -5.3370    0.1215 H   0  0  0  1  0  1  0  0  0  0  0  0
  1 16  1  0  0  0  0
  1 26  1  0  0  0  0
  2 15  1  0  0  0  0
  2 25  1  0  0  0  0
  3 11  2  0  0  0  0
  4 12  2  0  0  0  0
  5  9  1  0  0  0  0
  5 11  1  0  0  0  0
  5 37  1  0  0  0  0
  6 10  1  0  0  0  0
  6 12  1  0  0  0  0
  6 38  1  0  0  0  0
  7  8  1  0  0  0  0
  7  9  1  0  0  0  0
  7 29  1  0  0  0  0
  7 30  1  0  0  0  0
  8 10  1  0  0  0  0
  8 31  1  0  0  0  0
  8 32  1  0  0  0  0
  9 33  1  0  0  0  0
  9 34  1  0  0  0  0
 10 35  1  0  0  0  0
 10 36  1  0  0  0  0
 11 14  1  0  0  0  0
 12 13  1  0  0  0  0
 13 15  1  0  0  0  0
 13 17  2  0  0  0  0
 14 16  1  0  0  0  0
 14 18  2  0  0  0  0
 15 19  2  0  0  0  0
 16 20  2  0  0  0  0
 17 22  1  0  0  0  0
 17 40  1  0  0  0  0
 18 21  1  0  0  0  0
 18 39  1  0  0  0  0
 19 24  1  0  0  0  0
 19 42  1  0  0  0  0
 20 23  1  0  0  0  0
 20 41  1  0  0  0  0
 21 23  2  0  0  0  0
 21 43  1  0  0  0  0
 22 24  2  0  0  0  0
 22 44  1  0  0  0  0
 23 45  1  0  0  0  0
 24 46  1  0  0  0  0
 25 27  1  0  0  0  0
 25 49  1  0  0  0  0
 25 50  1  0  0  0  0
 26 28  1  0  0  0  0
 26 47  1  0  0  0  0
 26 48  1  0  0  0  0
 27 51  1  0  0  0  0
 27 52  1  0  0  0  0
 27 56  1  0  0  0  0
 28 53  1  0  0  0  0
 28 54  1  0  0  0  0
 28 55  1  0  0  0  0
M  END
> <Activity>
1.259

> <Mapped(file=504701.csv.activities,property=Cached(PUBCHEM_COMPOUND_CID))>
1.259

> <PUBCHEM_ATOM_DEF_STEREO_COUNT>
0

> <PUBCHEM_ATOM_UDEF_STEREO_COUNT>
0

> <PUBCHEM_BONDANNOTATIONS>
13  15  8
13  17  8
14  16  8
14  18  8
15  19  8
16  20  8
17  22  8
18  21  8
19  24  8
20  23  8
21  23  8
22  24  8

> <PUBCHEM_BOND_DEF_STEREO_COUNT>
0

> <PUBCHEM_BOND_UDEF_STEREO_COUNT>
0

> <PUBCHEM_CACTVS_COMPLEXITY>
430

> <PUBCHEM_CACTVS_HBOND_ACCEPTOR>
4

> <PUBCHEM_CACTVS_HBOND_DONOR>
2

> <PUBCHEM_CACTVS_ROTATABLE_BOND>
11

> <PUBCHEM_CACTVS_SUBSKEYS>
AAADceB7OAAAAAAAAAAAAAAAAAAAAAAAAAAwYAAAAAAAAAABQAAAHgAQAAAADAThmAYyBoLABACIAiFSEACCCAAkIAAIiIEODMgMJjaEtRuGOWjm9hGIqYeYyCCOAAAAAAAIAAAAAAAAABAAAAAAAAAAAA==

> <PUBCHEM_CACTVS_TAUTO_COUNT>
3

> <PUBCHEM_CACTVS_TPSA>
76.7

> <PUBCHEM_COMPONENT_COUNT>
1

> <PUBCHEM_COMPOUND_CANONICALIZED>
1

> <PUBCHEM_COMPOUND_CID>
2931287

> <PUBCHEM_COORDINATE_TYPE>
1
5
255

> <PUBCHEM_EXACT_MASS>
384.204907

> <PUBCHEM_HEAVY_ATOM_COUNT>
28

> <PUBCHEM_ISOTOPIC_ATOM_COUNT>
0

> <PUBCHEM_IUPAC_CAS_NAME>
2-ethoxy-N-[4-[[(2-ethoxyphenyl)-oxomethyl]amino]butyl]benzamide

> <PUBCHEM_IUPAC_INCHI>
InChI=1S/C22H28N2O4/c1-3-27-19-13-7-5-11-17(19)21(25)23-15-9-10-16-24-22(26)18-12-6-8-14-20(18)28-4-2/h5-8,11-14H,3-4,9-10,15-16H2,1-2H3,(H,23,25)(H,24,26)

> <PUBCHEM_IUPAC_INCHIKEY>
QGRXOHRCNSDPFV-UHFFFAOYSA-N

> <PUBCHEM_IUPAC_NAME>
2-ethoxy-N-[4-[(2-ethoxybenzoyl)amino]butyl]benzamide

> <PUBCHEM_IUPAC_OPENEYE_NAME>
2-ethoxy-N-[4-[(2-ethoxybenzoyl)amino]butyl]benzamide

> <PUBCHEM_IUPAC_SYSTEMATIC_NAME>
2-ethoxy-N-[4-[(2-ethoxyphenyl)carbonylamino]butyl]benzamide

> <PUBCHEM_IUPAC_TRADITIONAL_NAME>
2-ethoxy-N-[4-[(2-ethoxybenzoyl)amino]butyl]benzamide

> <PUBCHEM_MOLECULAR_FORMULA>
C22H28N2O4

> <PUBCHEM_MOLECULAR_WEIGHT>
384.46872

> <PUBCHEM_MONOISOTOPIC_WEIGHT>
384.204907

> <PUBCHEM_OPENEYE_CAN_SMILES>
CCOC1=CC=CC=C1C(=O)NCCCCNC(=O)C2=CC=CC=C2OCC

> <PUBCHEM_OPENEYE_ISO_SMILES>
CCOC1=CC=CC=C1C(=O)NCCCCNC(=O)C2=CC=CC=C2OCC

> <PUBCHEM_TOTAL_CHARGE>
0

> <PUBCHEM_XLOGP3_AA>
3.6

$$$$
Written by BCL::WriteToMDL,1769368
MBcorina  10171218483D 1   1.00000     0.00000 
CORINA 3.49 0026  01.06.2011
 50 51  0  0  0  0  0  0  0  0999 V2000
   -0.0163    1.3523    0.0095 O   0  0  0  1  0  2  0  0  0  0  0  0
  -10.9842   -2.3713    0.0961 O   0  0  0  1  0  2  0  0  0  0  0  0
   -2.5158    1.2036    0.0344 O   0  0  0  1  0  1  0  0  0  0  0  0
   -8.4846   -2.2226    0.0731 O   0  0  0  1  0  1  0  0  0  0  0  0
   -3.6459   -0.7086    0.0341 N   0  0  0  1  0  3  0  0  0  0  0  0
   -7.3546   -0.3103    0.0734 N   0  0  0  1  0  3  0  0  0  0  0  0
   -4.9286   -0.0011    0.0511 C   0  0  0  1  0  4  0  0  0  0  0  0
   -6.0719   -1.0179    0.0563 C   0  0  0  1  0  4  0  0  0  0  0  0
   -9.8001   -0.2944    0.0978 C   0  0  0  1  0  3  0  0  0  0  0  0
   -1.2003   -0.7245    0.0096 C   0  0  0  1  0  3  0  0  0  0  0  0
   -2.4921   -0.0120    0.0268 C   0  0  0  1  0  3  0  0  0  0  0  0
   -8.5083   -1.0069    0.0806 C   0  0  0  1  0  3  0  0  0  0  0  0
  -11.0025   -1.0149    0.1054 C   0  0  0  1  0  3  0  0  0  0  0  0
    0.0021   -0.0041    0.0020 C   0  0  0  1  0  3  0  0  0  0  0  0
   -9.8320    1.1018    0.1124 C   0  0  0  1  0  3  0  0  0  0  0  0
   -1.1684   -2.1209    0.0067 C   0  0  0  1  0  3  0  0  0  0  0  0
  -12.2109   -0.3348    0.1220 C   0  0  0  1  0  3  0  0  0  0  0  0
    1.2104   -0.6841   -0.0136 C   0  0  0  1  0  3  0  0  0  0  0  0
    0.0417   -2.7805   -0.0088 C   0  0  0  1  0  3  0  0  0  0  0  0
  -11.0421    1.7615    0.1289 C   0  0  0  1  0  3  0  0  0  0  0  0
    1.2276   -2.0650   -0.0217 C   0  0  0  1  0  3  0  0  0  0  0  0
  -12.2280    1.0461    0.1310 C   0  0  0  1  0  3  0  0  0  0  0  0
    1.2480    2.0183    0.0010 C   0  0  0  1  0  4  0  0  0  0  0  0
  -12.2484   -3.0373    0.1047 C   0  0  0  1  0  4  0  0  0  0  0  0
  -12.0275   -4.5512    0.0923 C   0  0  0  1  0  4  0  0  0  0  0  0
    1.0269    3.5323    0.0112 C   0  0  0  1  0  4  0  0  0  0  0  0
   -4.9897    0.6189    0.9455 H   0  0  0  1  0  1  0  0  0  0  0  0
   -5.0074    0.6297   -0.8343 H   0  0  0  1  0  1  0  0  0  0  0  0
   -5.9930   -1.6486    0.9418 H   0  0  0  1  0  1  0  0  0  0  0  0
   -6.0108   -1.6379   -0.8381 H   0  0  0  1  0  1  0  0  0  0  0  0
   -3.6270   -1.6784    0.0280 H   0  0  0  1  0  1  0  0  0  0  0  0
   -7.3735    0.6595    0.0794 H   0  0  0  1  0  1  0  0  0  0  0  0
   -2.0905   -2.6829    0.0170 H   0  0  0  1  0  1  0  0  0  0  0  0
   -8.9097    1.6638    0.1111 H   0  0  0  1  0  1  0  0  0  0  0  0
  -13.1398   -0.8857    0.1276 H   0  0  0  1  0  1  0  0  0  0  0  0
    2.1393   -0.1332   -0.0199 H   0  0  0  1  0  1  0  0  0  0  0  0
    0.0654   -3.8603   -0.0111 H   0  0  0  1  0  1  0  0  0  0  0  0
  -11.0656    2.8412    0.1402 H   0  0  0  1  0  1  0  0  0  0  0  0
    2.1712   -2.5901   -0.0339 H   0  0  0  1  0  1  0  0  0  0  0  0
  -13.1717    1.5711    0.1440 H   0  0  0  1  0  1  0  0  0  0  0  0
    1.8174    1.7283    0.8840 H   0  0  0  1  0  1  0  0  0  0  0  0
    1.8004    1.7379   -0.8958 H   0  0  0  1  0  1  0  0  0  0  0  0
  -12.8001   -2.7580    1.0024 H   0  0  0  1  0  1  0  0  0  0  0  0
  -12.8185   -2.7460   -0.7775 H   0  0  0  1  0  1  0  0  0  0  0  0
  -11.4758   -4.8305   -0.8054 H   0  0  0  1  0  1  0  0  0  0  0  0
  -11.4573   -4.8424    0.9745 H   0  0  0  1  0  1  0  0  0  0  0  0
    0.4575    3.8223   -0.8718 H   0  0  0  1  0  1  0  0  0  0  0  0
    0.4745    3.8127    0.9080 H   0  0  0  1  0  1  0  0  0  0  0  0
    1.9913    4.0403    0.0047 H   0  0  0  1  0  1  0  0  0  0  0  0
  -12.9918   -5.0592    0.0989 H   0  0  0  1  0  1  0  0  0  0  0  0
  1 14  1  0  0  0  0
  1 23  1  0  0  0  0
  2 13  1  0  0  0  0
  2 24  1  0  0  0  0
  3 11  2  0  0  0  0
  4 12  2  0  0  0  0
  5  7  1  0  0  0  0
  5 11  1  0  0  0  0
  5 31  1  0  0  0  0
  6  8  1  0  0  0  0
  6 12  1  0  0  0  0
  6 32  1  0  0  0  0
  7  8  1  0  0  0  0
  7 27  1  0  0  0  0
  7 28  1  0  0  0  0
  8 29  1  0  0  0  0
  8 30  1  0  0  0  0
  9 12  1  0  0  0  0
  9 13  1  0  0  0  0
  9 15  2  0  0  0  0
 10 11  1  0  0  0  0
 10 14  1  0  0  0  0
 10 16  2  0  0  0  0
 13 17  2  0  0  0  0
 14 18  2  0  0  0  0
 15 20  1  0  0  0  0
 15 34  1  0  0  0  0
 16 19  1  0  0  0  0
 16 33  1  0  0  0  0
 17 22  1  0  0  0  0
 17 35  1  0  0  0  0
 18 21  1  0  0  0  0
 18 36  1  0  0  0  0
 19 21  2  0  0  0  0
 19 37  1  0  0  0  0
 20 22  2  0  0  0  0
 20 38  1  0  0  0  0
 21 39  1  0  0  0  0
 22 40  1  0  0  0  0
 23 26  1  0  0  0  0
 23 41  1  0  0  0  0
 23 42  1  0  0  0  0
 24 25  1  0  0  0  0
 24 43  1  0  0  0  0
 24 44  1  0  0  0  0
 25 45  1  0  0  0  0
 25 46  1  0  0  0  0
 25 50  1  0  0  0  0
 26 47  1  0  0  0  0
 26 48  1  0  0  0  0
 26 49  1  0  0  0  0
M  END
> <Activity>
4.154

> <Mapped(file=504701.csv.activities,property=Cached(PUBCHEM_COMPOUND_CID))>
4.154

> <PUBCHEM_ATOM_DEF_STEREO_COUNT>
0

> <PUBCHEM_ATOM_UDEF_STEREO_COUNT>
0

> <PUBCHEM_BONDANNOTATIONS>
10  14  8
10  16  8
13  17  8
14  18  8
15  20  8
16  19  8
17  22  8
18  21  8
19  21  8
20  22  8
9  13  8
9  15  8

> <PUBCHEM_BOND_DEF_STEREO_COUNT>
0

> <PUBCHEM_BOND_UDEF_STEREO_COUNT>
0

> <PUBCHEM_CACTVS_COMPLEXITY>
404

> <PUBCHEM_CACTVS_HBOND_ACCEPTOR>
4

> <PUBCHEM_CACTVS_HBOND_DONOR>
2

> <PUBCHEM_CACTVS_ROTATABLE_BOND>
9

> <PUBCHEM_CACTVS_SUBSKEYS>
AAADceB7OAAAAAAAAAAAAAAAAAAAAAAAAAAwYAAAAAAAAAABQAAAHgAQAAAADAThmAYyBoLABACIAiFSEACCCAAkIAAIiIEODMgMZjaEtRuWOWjm9hGIqYeYyCCOAAAAAAAIAAAAAAAAABAAAAAAAAAAAA==

> <PUBCHEM_CACTVS_TAUTO_COUNT>
3

> <PUBCHEM_CACTVS_TPSA>
76.7

> <PUBCHEM_COMPONENT_COUNT>
1

> <PUBCHEM_COMPOUND_CANONICALIZED>
1

> <PUBCHEM_COMPOUND_CID>
1769368

> <PUBCHEM_COORDINATE_TYPE>
1
5
255

> <PUBCHEM_EXACT_MASS>
356.173607

> <PUBCHEM_HEAVY_ATOM_COUNT>
26

> <PUBCHEM_ISOTOPIC_ATOM_COUNT>
0

> <PUBCHEM_IUPAC_CAS_NAME>
2-ethoxy-N-[2-[[(2-ethoxyphenyl)-oxomethyl]amino]ethyl]benzamide

> <PUBCHEM_IUPAC_INCHI>
InChI=1S/C20H24N2O4/c1-3-25-17-11-7-5-9-15(17)19(23)21-13-14-22-20(24)16-10-6-8-12-18(16)26-4-2/h5-12H,3-4,13-14H2,1-2H3,(H,21,23)(H,22,24)

> <PUBCHEM_IUPAC_INCHIKEY>
RBWCUBFRWWPRMW-UHFFFAOYSA-N

> <PUBCHEM_IUPAC_NAME>
2-ethoxy-N-[2-[(2-ethoxybenzoyl)amino]ethyl]benzamide

> <PUBCHEM_IUPAC_OPENEYE_NAME>
2-ethoxy-N-[2-[(2-ethoxybenzoyl)amino]ethyl]benzamide

> <PUBCHEM_IUPAC_SYSTEMATIC_NAME>
2-ethoxy-N-[2-[(2-ethoxyphenyl)carbonylamino]ethyl]benzamide

> <PUBCHEM_IUPAC_TRADITIONAL_NAME>
2-ethoxy-N-[2-[(2-ethoxybenzoyl)amino]ethyl]benzamide

> <PUBCHEM_MOLECULAR_FORMULA>
C20H24N2O4

> <PUBCHEM_MOLECULAR_WEIGHT>
356.41556

> <PUBCHEM_MONOISOTOPIC_WEIGHT>
356.173607

> <PUBCHEM_OPENEYE_CAN_SMILES>
CCOC1=CC=CC=C1C(=O)NCCNC(=O)C2=CC=CC=C2OCC

> <PUBCHEM_OPENEYE_ISO_SMILES>
CCOC1=CC=CC=C1C(=O)NCCNC(=O)C2=CC=CC=C2OCC

> <PUBCHEM_TOTAL_CHARGE>
0

> <PUBCHEM_XLOGP3_AA>
2.8

$$$$
Written by BCL::WriteToMDL,7205744
MBcorina  10171218483D 1   1.00000     0.00000 
CORINA 3.49 0026  01.06.2011
 33 35  0  0  0  0  0  0  0  0999 V2000
   -0.0225    1.8097    0.0120 S   0  0  0  1  0  2  0  0  0  0  0  0
   -0.4127   -3.1659   -0.0116 S   0  0  0  1  0  2  0  0  0  0  0  0
   -2.3454    0.2509    0.0258 O   0  0  0  1  0  1  0  0  0  0  0  0
    3.8639    1.5323   -0.0270 N   0  0  0  1  0  2  0  0  0  0  0  0
    2.6069    1.2730   -0.0160 N   0  0  0  1  0  2  0  0  0  0  0  0
    5.7901    3.0221   -0.0388 C   0  0  0  1  0  3  0  0  0  0  0  0
    4.3279    2.7745   -0.0252 C   0  0  0  1  0  3  0  0  0  0  0  0
    0.0021   -0.0041    0.0020 C   0  0  0  1  0  4  0  0  0  0  0  0
    3.4339    3.8512   -0.0110 C   0  0  0  1  0  3  0  0  0  0  0  0
    6.6810    1.9503   -0.0535 C   0  0  0  1  0  3  0  0  0  0  0  0
    6.2785    4.3275   -0.0427 C   0  0  0  1  0  3  0  0  0  0  0  0
    1.6887    2.2294   -0.0021 C   0  0  0  1  0  3  0  0  0  0  0  0
   -1.6509   -1.9176    0.0075 C   0  0  0  1  0  3  0  0  0  0  0  0
   -1.4117   -0.5257    0.0127 C   0  0  0  1  0  3  0  0  0  0  0  0
    2.0801    3.5701    0.0009 C   0  0  0  1  0  3  0  0  0  0  0  0
    8.0406    2.1868   -0.0661 C   0  0  0  1  0  3  0  0  0  0  0  0
    7.6401    4.5520   -0.0553 C   0  0  0  1  0  3  0  0  0  0  0  0
   -2.8867   -2.5132    0.0158 C   0  0  0  1  0  3  0  0  0  0  0  0
    8.5197    3.4844   -0.0637 C   0  0  0  1  0  3  0  0  0  0  0  0
   -2.8272   -3.8839    0.0072 C   0  0  0  1  0  3  0  0  0  0  0  0
   -1.5905   -4.4002   -0.0077 C   0  0  0  1  0  3  0  0  0  0  0  0
    0.5123   -0.3556   -0.8948 H   0  0  0  1  0  1  0  0  0  0  0  0
    0.5293   -0.3651    0.8851 H   0  0  0  1  0  1  0  0  0  0  0  0
    3.7906    4.8705   -0.0089 H   0  0  0  1  0  1  0  0  0  0  0  0
    6.3080    0.9368   -0.0547 H   0  0  0  1  0  1  0  0  0  0  0  0
    5.5926    5.1618   -0.0362 H   0  0  0  1  0  1  0  0  0  0  0  0
    1.3474    4.3634    0.0125 H   0  0  0  1  0  1  0  0  0  0  0  0
    8.7318    1.3570   -0.0775 H   0  0  0  1  0  1  0  0  0  0  0  0
    8.0196    5.5631   -0.0587 H   0  0  0  1  0  1  0  0  0  0  0  0
   -3.8135   -1.9588    0.0282 H   0  0  0  1  0  1  0  0  0  0  0  0
    9.5845    3.6647   -0.0732 H   0  0  0  1  0  1  0  0  0  0  0  0
   -3.7128   -4.5020    0.0123 H   0  0  0  1  0  1  0  0  0  0  0  0
   -1.3690   -5.4572   -0.0163 H   0  0  0  1  0  1  0  0  0  0  0  0
  1  8  1  0  0  0  0
  1 12  1  0  0  0  0
  2 13  1  0  0  0  0
  2 21  1  0  0  0  0
  3 14  2  0  0  0  0
  4  5  1  0  0  0  0
  4  7  2  0  0  0  0
  5 12  2  0  0  0  0
  6  7  1  0  0  0  0
  6 10  2  0  0  0  0
  6 11  1  0  0  0  0
  7  9  1  0  0  0  0
  8 14  1  0  0  0  0
  8 22  1  0  0  0  0
  8 23  1  0  0  0  0
  9 15  2  0  0  0  0
  9 24  1  0  0  0  0
 10 16  1  0  0  0  0
 10 25  1  0  0  0  0
 11 17  2  0  0  0  0
 11 26  1  0  0  0  0
 12 15  1  0  0  0  0
 13 14  1  0  0  0  0
 13 18  2  0  0  0  0
 15 27  1  0  0  0  0
 16 19  2  0  0  0  0
 16 28  1  0  0  0  0
 17 19  1  0  0  0  0
 17 29  1  0  0  0  0
 18 20  1  0  0  0  0
 18 30  1  0  0  0  0
 19 31  1  0  0  0  0
 20 21  2  0  0  0  0
 20 32  1  0  0  0  0
 21 33  1  0  0  0  0
M  END
> <Activity>
1.085

> <Mapped(file=504701.csv.activities,property=Cached(PUBCHEM_COMPOUND_CID))>
1.085

> <PUBCHEM_ATOM_DEF_STEREO_COUNT>
0

> <PUBCHEM_ATOM_UDEF_STEREO_COUNT>
0

> <PUBCHEM_BONDANNOTATIONS>
10  16  8
11  17  8
12  15  8
13  18  8
16  19  8
17  19  8
18  20  8
2  13  8
2  21  8
20  21  8
4  5  8
4  7  8
5  12  8
6  10  8
6  11  8
7  9  8
9  15  8

> <PUBCHEM_BOND_DEF_STEREO_COUNT>
0

> <PUBCHEM_BOND_UDEF_STEREO_COUNT>
0

> <PUBCHEM_CACTVS_COMPLEXITY>
347

> <PUBCHEM_CACTVS_HBOND_ACCEPTOR>
5

> <PUBCHEM_CACTVS_HBOND_DONOR>
0

> <PUBCHEM_CACTVS_ROTATABLE_BOND>
5

> <PUBCHEM_CACTVS_SUBSKEYS>
AAADccB7IABgAAAAAAAAAAAAAAAAASAAAAA8QAAAAAAAAAAB8AAAHgQIAAAADAyF3gCwgZAAAAiuA6RyQACTBIBkChBYmDkwZNgIILKglZGAoQBgiAAoyYcYgIAOAAAAAAAAAAAAAAAAAAAAAAAAAAAAAA==

> <PUBCHEM_CACTVS_TAUTO_COUNT>
2

> <PUBCHEM_CACTVS_TPSA>
96.4

> <PUBCHEM_COMPONENT_COUNT>
1

> <PUBCHEM_COMPOUND_CANONICALIZED>
1

> <PUBCHEM_COMPOUND_CID>
7205744

> <PUBCHEM_COORDINATE_TYPE>
1
5
255

> <PUBCHEM_EXACT_MASS>
312.039105

> <PUBCHEM_HEAVY_ATOM_COUNT>
21

> <PUBCHEM_ISOTOPIC_ATOM_COUNT>
0

> <PUBCHEM_IUPAC_CAS_NAME>
2-[(6-phenyl-3-pyridazinyl)thio]-1-thiophen-2-ylethanone

> <PUBCHEM_IUPAC_INCHI>
InChI=1S/C16H12N2OS2/c19-14(15-7-4-10-20-15)11-21-16-9-8-13(17-18-16)12-5-2-1-3-6-12/h1-10H,11H2

> <PUBCHEM_IUPAC_INCHIKEY>
ZCTMFGPZGXXKJE-UHFFFAOYSA-N

> <PUBCHEM_IUPAC_NAME>
2-(6-phenylpyridazin-3-yl)sulfanyl-1-thiophen-2-ylethanone

> <PUBCHEM_IUPAC_OPENEYE_NAME>
2-(6-phenylpyridazin-3-yl)sulfanyl-1-(2-thienyl)ethanone

> <PUBCHEM_IUPAC_SYSTEMATIC_NAME>
2-(6-phenylpyridazin-3-yl)sulfanyl-1-thiophen-2-yl-ethanone

> <PUBCHEM_IUPAC_TRADITIONAL_NAME>
2-[(6-phenylpyridazin-3-yl)thio]-1-(2-thienyl)ethanone

> <PUBCHEM_MOLECULAR_FORMULA>
C16H12N2OS2

> <PUBCHEM_MOLECULAR_WEIGHT>
312.40928

> <PUBCHEM_MONOISOTOPIC_WEIGHT>
312.039105

> <PUBCHEM_OPENEYE_CAN_SMILES>
C1=CC=C(C=C1)C2=NN=C(C=C2)SCC(=O)C3=CC=CS3

> <PUBCHEM_OPENEYE_ISO_SMILES>
C1=CC=C(C=C1)C2=NN=C(C=C2)SCC(=O)C3=CC=CS3

> <PUBCHEM_TOTAL_CHARGE>
0

> <PUBCHEM_XLOGP3_AA>
3.8

$$$$
Written by BCL::WriteToMDL,3238416
MBcorina  10171218483D 1   1.00000     0.00000 
CORINA 3.49 0026  01.06.2011
 32 33  0  0  0  0  0  0  0  0999 V2000
   -0.0213    1.7179    0.0115 S   0  0  0  1  0  2  0  0  0  0  0  0
   -4.9459    0.6394    0.0546 O   0  0  0  1  0  2  0  0  0  0  0  0
   -2.4534    0.8890    0.0308 O   0  0  0  1  0  1  0  0  0  0  0  0
    1.3102   -0.3550   -0.0124 N   0  0  0  1  0  3  0  0  0  0  0  0
   -1.0491   -0.8218    0.0083 N   0  0  0  1  0  2  0  0  0  0  0  0
    1.7256   -1.7599   -0.0239 C   0  0  0  1  0  4  0  0  0  0  0  0
    2.2204    0.6547   -0.0156 C   0  0  0  1  0  3  0  0  0  0  0  0
    0.0021   -0.0041    0.0020 C   0  0  0  1  0  3  0  0  0  0  0  0
    1.7422    1.8926   -0.0044 C   0  0  0  1  0  3  0  0  0  0  0  0
    1.8840   -2.2567    1.4145 C   0  0  0  1  0  4  0  0  0  0  0  0
    3.7023    0.3813   -0.0308 C   0  0  0  1  0  4  0  0  0  0  0  0
   -3.4536   -1.2271    0.0301 C   0  0  0  1  0  3  0  0  0  0  0  0
   -2.2862   -0.3190    0.0231 C   0  0  0  1  0  3  0  0  0  0  0  0
   -4.7525   -0.7037    0.0456 C   0  0  0  1  0  3  0  0  0  0  0  0
   -3.2666   -2.6096    0.0155 C   0  0  0  1  0  3  0  0  0  0  0  0
   -5.8400   -1.5637    0.0521 C   0  0  0  1  0  3  0  0  0  0  0  0
   -4.3588   -3.4514    0.0222 C   0  0  0  1  0  3  0  0  0  0  0  0
   -5.6416   -2.9306    0.0433 C   0  0  0  1  0  3  0  0  0  0  0  0
    0.9703   -2.3579   -0.5337 H   0  0  0  1  0  1  0  0  0  0  0  0
    2.6771   -1.8531   -0.5473 H   0  0  0  1  0  1  0  0  0  0  0  0
    2.3082    2.8124   -0.0052 H   0  0  0  1  0  1  0  0  0  0  0  0
    0.9325   -2.1634    1.9380 H   0  0  0  1  0  1  0  0  0  0  0  0
    2.1931   -3.3019    1.4060 H   0  0  0  1  0  1  0  0  0  0  0  0
    2.6393   -1.6586    1.9244 H   0  0  0  1  0  1  0  0  0  0  0  0
    4.0501    0.3206   -1.0620 H   0  0  0  1  0  1  0  0  0  0  0  0
    4.2259    1.1879    0.4824 H   0  0  0  1  0  1  0  0  0  0  0  0
    3.9028   -0.5625    0.4764 H   0  0  0  1  0  1  0  0  0  0  0  0
   -2.2678   -3.0200   -0.0013 H   0  0  0  1  0  1  0  0  0  0  0  0
   -6.8434   -1.1643    0.0644 H   0  0  0  1  0  1  0  0  0  0  0  0
   -4.2130   -4.5215    0.0105 H   0  0  0  1  0  1  0  0  0  0  0  0
   -6.4916   -3.5968    0.0488 H   0  0  0  1  0  1  0  0  0  0  0  0
   -5.0106    1.0335   -0.8261 H   0  0  0  1  0  1  0  0  0  0  0  0
  1  8  1  0  0  0  0
  1  9  1  0  0  0  0
  2 14  1  0  0  0  0
  2 32  1  0  0  0  0
  3 13  2  0  0  0  0
  4  6  1  0  0  0  0
  4  7  1  0  0  0  0
  4  8  1  0  0  0  0
  5  8  2  0  0  0  0
  5 13  1  0  0  0  0
  6 10  1  0  0  0  0
  6 19  1  0  0  0  0
  6 20  1  0  0  0  0
  7  9  2  0  0  0  0
  7 11  1  0  0  0  0
  9 21  1  0  0  0  0
 10 22  1  0  0  0  0
 10 23  1  0  0  0  0
 10 24  1  0  0  0  0
 11 25  1  0  0  0  0
 11 26  1  0  0  0  0
 11 27  1  0  0  0  0
 12 13  1  0  0  0  0
 12 14  1  0  0  0  0
 12 15  2  0  0  0  0
 14 16  2  0  0  0  0
 15 17  1  0  0  0  0
 15 28  1  0  0  0  0
 16 18  1  0  0  0  0
 16 29  1  0  0  0  0
 17 18  2  0  0  0  0
 17 30  1  0  0  0  0
 18 31  1  0  0  0  0
M  END
> <Activity>
2.694

> <Mapped(file=504701.csv.activities,property=Cached(PUBCHEM_COMPOUND_CID))>
2.694

> <PUBCHEM_ATOM_DEF_STEREO_COUNT>
0

> <PUBCHEM_ATOM_UDEF_STEREO_COUNT>
0

> <PUBCHEM_BONDANNOTATIONS>
1  8  8
1  9  8
12  14  8
12  15  8
14  16  8
15  17  8
16  18  8
17  18  8
4  7  8
4  8  8
7  9  8

> <PUBCHEM_BOND_DEF_STEREO_COUNT>
0

> <PUBCHEM_BOND_UDEF_STEREO_COUNT>
0

> <PUBCHEM_CACTVS_COMPLEXITY>
393

> <PUBCHEM_CACTVS_HBOND_ACCEPTOR>
3

> <PUBCHEM_CACTVS_HBOND_DONOR>
1

> <PUBCHEM_CACTVS_ROTATABLE_BOND>
2

> <PUBCHEM_CACTVS_SUBSKEYS>
AAADccBzMABAAAAAAAAAAAAAAAAAAQAAAAAwAAAAAAAAAAABAAAAHgQACAAADAzF2ASzBoMAAgioAiVSdACCEAFkIgAJiAEODMgIJjaCnROAcUBm4BGImYeYyCCOAAAAAAAIAAAAAAAAABAAAAAAAAAAAA==

> <PUBCHEM_CACTVS_TAUTO_COUNT>
4

> <PUBCHEM_CACTVS_TPSA>
78.2

> <PUBCHEM_COMPONENT_COUNT>
1

> <PUBCHEM_COMPOUND_CANONICALIZED>
1

> <PUBCHEM_COMPOUND_CID>
3238416

> <PUBCHEM_COORDINATE_TYPE>
1
5
255

> <PUBCHEM_EXACT_MASS>
262.077599

> <PUBCHEM_HEAVY_ATOM_COUNT>
18

> <PUBCHEM_ISOTOPIC_ATOM_COUNT>
0

> <PUBCHEM_IUPAC_CAS_NAME>
N-(3-ethyl-4-methyl-2-thiazolylidene)-2-hydroxybenzamide

> <PUBCHEM_IUPAC_INCHI>
InChI=1S/C13H14N2O2S/c1-3-15-9(2)8-18-13(15)14-12(17)10-6-4-5-7-11(10)16/h4-8,16H,3H2,1-2H3

> <PUBCHEM_IUPAC_INCHIKEY>
MIJZDGIXNWSXRQ-UHFFFAOYSA-N

> <PUBCHEM_IUPAC_NAME>
N-(3-ethyl-4-methyl-1,3-thiazol-2-ylidene)-2-hydroxybenzamide

> <PUBCHEM_IUPAC_OPENEYE_NAME>
N-(3-ethyl-4-methyl-thiazol-2-ylidene)-2-hydroxy-benzamide

> <PUBCHEM_IUPAC_SYSTEMATIC_NAME>
N-(3-ethyl-4-methyl-1,3-thiazol-2-ylidene)-2-oxidanyl-benzamide

> <PUBCHEM_IUPAC_TRADITIONAL_NAME>
N-(3-ethyl-4-methyl-4-thiazolin-2-ylidene)-2-hydroxy-benzamide

> <PUBCHEM_MOLECULAR_FORMULA>
C13H14N2O2S

> <PUBCHEM_MOLECULAR_WEIGHT>
262.32746

> <PUBCHEM_MONOISOTOPIC_WEIGHT>
262.077599

> <PUBCHEM_OPENEYE_CAN_SMILES>
CCN1C(=CSC1=NC(=O)C2=CC=CC=C2O)C

> <PUBCHEM_OPENEYE_ISO_SMILES>
CCN1C(=CSC1=NC(=O)C2=CC=CC=C2O)C

> <PUBCHEM_TOTAL_CHARGE>
0

> <PUBCHEM_XLOGP3_AA>
3.1

$$$$
Written by BCL::WriteToMDL,865623
MBcorina  10171218483D 1   1.00000     0.00000 
CORINA 3.49 0026  01.06.2011
 32 34  0  0  0  0  0  0  0  0999 V2000
   -0.0218    1.7546    0.0117 S   0  0  0  1  0  2  0  0  0  0  0  0
   -2.4718   -0.4625    0.0236 O   0  0  0  1  0  2  0  0  0  0  0  0
   -8.8616   -1.8165    0.0812 N   0  0  0  1  0  3  0  0  0  0  0  0
   -2.4043   -2.6092    0.0107 N   0  0  0  1  0  2  0  0  0  0  0  0
   -1.1893   -2.1864    0.0012 N   0  0  0  1  0  2  0  0  0  0  0  0
   -7.4683   -1.7588    0.0672 C   0  0  0  1  0  3  0  0  0  0  0  0
   -4.6993   -1.6441    0.0395 C   0  0  0  1  0  3  0  0  0  0  0  0
   -6.7252   -2.9345    0.0525 C   0  0  0  1  0  3  0  0  0  0  0  0
   -6.8249   -0.5256    0.0623 C   0  0  0  1  0  3  0  0  0  0  0  0
   -5.3489   -2.8812    0.0387 C   0  0  0  1  0  3  0  0  0  0  0  0
   -5.4489   -0.4649    0.0485 C   0  0  0  1  0  3  0  0  0  0  0  0
   -3.2246   -1.5830    0.0246 C   0  0  0  1  0  3  0  0  0  0  0  0
   -9.5410   -3.1144    0.0804 C   0  0  0  1  0  4  0  0  0  0  0  0
   -9.6459   -0.5792    0.0968 C   0  0  0  1  0  4  0  0  0  0  0  0
   -1.1847   -0.8700    0.0087 C   0  0  0  1  0  3  0  0  0  0  0  0
    0.0021   -0.0041    0.0020 C   0  0  0  1  0  3  0  0  0  0  0  0
    1.2937   -0.4374   -0.0126 C   0  0  0  1  0  3  0  0  0  0  0  0
    2.2325    0.5702   -0.0162 C   0  0  0  1  0  3  0  0  0  0  0  0
    1.7355    1.8115   -0.0048 C   0  0  0  1  0  3  0  0  0  0  0  0
   -7.2280   -3.8904    0.0523 H   0  0  0  1  0  1  0  0  0  0  0  0
   -7.4049    0.3854    0.0693 H   0  0  0  1  0  1  0  0  0  0  0  0
   -4.7725   -3.7945    0.0317 H   0  0  0  1  0  1  0  0  0  0  0  0
   -4.9499    0.4929    0.0491 H   0  0  0  1  0  1  0  0  0  0  0  0
   -9.2452   -3.6800    0.9640 H   0  0  0  1  0  1  0  0  0  0  0  0
  -10.6199   -2.9598    0.0924 H   0  0  0  1  0  1  0  0  0  0  0  0
   -9.2635   -3.6692   -0.8159 H   0  0  0  1  0  1  0  0  0  0  0  0
   -9.8509   -0.2661   -0.9270 H   0  0  0  1  0  1  0  0  0  0  0  0
  -10.5867   -0.7519    0.6193 H   0  0  0  1  0  1  0  0  0  0  0  0
   -9.0834    0.2011    0.6096 H   0  0  0  1  0  1  0  0  0  0  0  0
    1.5593   -1.4842   -0.0205 H   0  0  0  1  0  1  0  0  0  0  0  0
    3.2941    0.3720   -0.0271 H   0  0  0  1  0  1  0  0  0  0  0  0
    2.3262    2.7156   -0.0056 H   0  0  0  1  0  1  0  0  0  0  0  0
  1 16  1  0  0  0  0
  1 19  1  0  0  0  0
  2 12  1  0  0  0  0
  2 15  1  0  0  0  0
  3  6  1  0  0  0  0
  3 13  1  0  0  0  0
  3 14  1  0  0  0  0
  4  5  1  0  0  0  0
  4 12  2  0  0  0  0
  5 15  2  0  0  0  0
  6  8  2  0  0  0  0
  6  9  1  0  0  0  0
  7 10  2  0  0  0  0
  7 11  1  0  0  0  0
  7 12  1  0  0  0  0
  8 10  1  0  0  0  0
  8 20  1  0  0  0  0
  9 11  2  0  0  0  0
  9 21  1  0  0  0  0
 10 22  1  0  0  0  0
 11 23  1  0  0  0  0
 13 24  1  0  0  0  0
 13 25  1  0  0  0  0
 13 26  1  0  0  0  0
 14 27  1  0  0  0  0
 14 28  1  0  0  0  0
 14 29  1  0  0  0  0
 15 16  1  0  0  0  0
 16 17  2  0  0  0  0
 17 18  1  0  0  0  0
 17 30  1  0  0  0  0
 18 19  2  0  0  0  0
 18 31  1  0  0  0  0
 19 32  1  0  0  0  0
M  END
> <Activity>
3.585

> <Mapped(file=504701.csv.activities,property=Cached(PUBCHEM_COMPOUND_CID))>
3.585

> <PUBCHEM_ATOM_DEF_STEREO_COUNT>
0

> <PUBCHEM_ATOM_UDEF_STEREO_COUNT>
0

> <PUBCHEM_BONDANNOTATIONS>
1  16  8
1  19  8
16  17  8
17  18  8
18  19  8
2  12  8
2  15  8
4  12  8
4  5  8
5  15  8
6  8  8
6  9  8
7  10  8
7  11  8
8  10  8
9  11  8

> <PUBCHEM_BOND_DEF_STEREO_COUNT>
0

> <PUBCHEM_BOND_UDEF_STEREO_COUNT>
0

> <PUBCHEM_CACTVS_COMPLEXITY>
294

> <PUBCHEM_CACTVS_HBOND_ACCEPTOR>
3

> <PUBCHEM_CACTVS_HBOND_DONOR>
0

> <PUBCHEM_CACTVS_ROTATABLE_BOND>
3

> <PUBCHEM_CACTVS_SUBSKEYS>
AAADccBzIABAAAAAAAAAAAAAAAAAAWJAAAAwAAAAAAAAAAAB8AAAHgQIAAAADAiF2gSywYMABEiuAiVyUACTAIAtChBaiDkobNgIJrLgtZmOMQhkyAFo6YeY2SOeCAAAAAAAAAAQAAAAAAAAAAAAAAAAAA==

> <PUBCHEM_CACTVS_TAUTO_COUNT>
1

> <PUBCHEM_CACTVS_TPSA>
70.4

> <PUBCHEM_COMPONENT_COUNT>
1

> <PUBCHEM_COMPOUND_CANONICALIZED>
1

> <PUBCHEM_COMPOUND_CID>
865623

> <PUBCHEM_COORDINATE_TYPE>
1
5
255

> <PUBCHEM_EXACT_MASS>
271.077933

> <PUBCHEM_HEAVY_ATOM_COUNT>
19

> <PUBCHEM_ISOTOPIC_ATOM_COUNT>
0

> <PUBCHEM_IUPAC_CAS_NAME>
N,N-dimethyl-4-(5-thiophen-2-yl-1,3,4-oxadiazol-2-yl)aniline

> <PUBCHEM_IUPAC_INCHI>
InChI=1S/C14H13N3OS/c1-17(2)11-7-5-10(6-8-11)13-15-16-14(18-13)12-4-3-9-19-12/h3-9H,1-2H3

> <PUBCHEM_IUPAC_INCHIKEY>
ZWZJQNSDEXBTRV-UHFFFAOYSA-N

> <PUBCHEM_IUPAC_NAME>
N,N-dimethyl-4-(5-thiophen-2-yl-1,3,4-oxadiazol-2-yl)aniline

> <PUBCHEM_IUPAC_OPENEYE_NAME>
N,N-dimethyl-4-[5-(2-thienyl)-1,3,4-oxadiazol-2-yl]aniline

> <PUBCHEM_IUPAC_SYSTEMATIC_NAME>
N,N-dimethyl-4-(5-thiophen-2-yl-1,3,4-oxadiazol-2-yl)aniline

> <PUBCHEM_IUPAC_TRADITIONAL_NAME>
dimethyl-[4-[5-(2-thienyl)-1,3,4-oxadiazol-2-yl]phenyl]amine

> <PUBCHEM_MOLECULAR_FORMULA>
C14H13N3OS

> <PUBCHEM_MOLECULAR_WEIGHT>
271.33752

> <PUBCHEM_MONOISOTOPIC_WEIGHT>
271.077933

> <PUBCHEM_OPENEYE_CAN_SMILES>
CN(C)C1=CC=C(C=C1)C2=NN=C(O2)C3=CC=CS3

> <PUBCHEM_OPENEYE_ISO_SMILES>
CN(C)C1=CC=C(C=C1)C2=NN=C(O2)C3=CC=CS3

> <PUBCHEM_TOTAL_CHARGE>
0

> <PUBCHEM_XLOGP3_AA>
2.9

$$$$
Written by BCL::WriteToMDL,2212798
MBcorina  10171218483D 1   1.00000     0.00000 
CORINA 3.49 0026  01.06.2011
 52 55  0  0  0  0  0  0  0  0999 V2000
   -0.7125   -7.1661   -1.2483 Cl  0  0  0  1  0  1  0  0  0  0  0  0
    0.0145    1.7554    0.1179 S   0  0  0  1  0  2  0  0  0  0  0  0
    3.5809   10.8288   -1.5584 S   0  0  0  1  0  2  0  0  0  0  0  0
    2.6487    8.2794    1.8580 O   0  0  0  1  0  1  0  0  0  0  0  0
   -1.0707   -0.8082   -0.1547 N   0  0  0  1  0  3  0  0  0  0  0  0
    0.7082   -2.0199    0.0541 N   0  0  0  1  0  2  0  0  0  0  0  0
    1.0631   -0.7898    0.1662 N   0  0  0  1  0  2  0  0  0  0  0  0
    2.9901    8.4379   -0.3308 N   0  0  0  1  0  3  0  0  0  0  0  0
    3.1764   10.4919    0.8605 N   0  0  0  1  0  2  0  0  0  0  0  0
   -0.5880   -2.0965   -0.1379 C   0  0  0  1  0  3  0  0  0  0  0  0
   -1.3800   -3.3338   -0.3042 C   0  0  0  1  0  3  0  0  0  0  0  0
   -2.4614   -0.3863   -0.3398 C   0  0  0  1  0  4  0  0  0  0  0  0
    0.0159   -0.0050    0.0430 C   0  0  0  1  0  3  0  0  0  0  0  0
    1.7770    2.0595    0.3960 C   0  0  0  1  0  4  0  0  0  0  0  0
    2.0210    3.5433    0.4960 C   0  0  0  1  0  3  0  0  0  0  0  0
   -0.7490   -4.5275   -0.6562 C   0  0  0  1  0  3  0  0  0  0  0  0
   -2.7615   -3.3139   -0.1042 C   0  0  0  1  0  3  0  0  0  0  0  0
   -2.8652   -5.6512   -0.6156 C   0  0  0  1  0  3  0  0  0  0  0  0
   -1.4947   -5.6796   -0.8100 C   0  0  0  1  0  3  0  0  0  0  0  0
   -3.4952   -4.4715   -0.2609 C   0  0  0  1  0  3  0  0  0  0  0  0
    1.9542    4.1708    1.7273 C   0  0  0  1  0  3  0  0  0  0  0  0
    2.3165    4.2710   -0.6431 C   0  0  0  1  0  3  0  0  0  0  0  0
   -3.1291   -0.2534    1.0046 C   0  0  0  1  0  3  0  0  0  0  0  0
    2.4691    6.2699    0.6797 C   0  0  0  1  0  3  0  0  0  0  0  0
    2.1761    5.5288    1.8259 C   0  0  0  1  0  3  0  0  0  0  0  0
    2.5414    5.6294   -0.5586 C   0  0  0  1  0  3  0  0  0  0  0  0
   -3.6735   -6.9117   -0.7854 C   0  0  0  1  0  4  0  0  0  0  0  0
    2.7075    7.7252    0.7777 C   0  0  0  1  0  3  0  0  0  0  0  0
   -3.7084    0.8728    1.3397 C   0  0  0  1  0  3  0  0  0  0  0  0
    3.2141    9.8056   -0.2387 C   0  0  0  1  0  3  0  0  0  0  0  0
    3.6669   12.2144   -0.4737 C   0  0  0  1  0  3  0  0  0  0  0  0
    3.4153   11.7865    0.7650 C   0  0  0  1  0  3  0  0  0  0  0  0
   -2.4842    0.5747   -0.8535 H   0  0  0  1  0  1  0  0  0  0  0  0
   -2.9903   -1.1297   -0.9362 H   0  0  0  1  0  1  0  0  0  0  0  0
    2.0871    1.5770    1.3228 H   0  0  0  1  0  1  0  0  0  0  0  0
    2.3516    1.6521   -0.4358 H   0  0  0  1  0  1  0  0  0  0  0  0
    0.3200   -4.5504   -0.8083 H   0  0  0  1  0  1  0  0  0  0  0  0
   -3.2548   -2.3941    0.1730 H   0  0  0  1  0  1  0  0  0  0  0  0
   -4.5639   -4.4569   -0.1060 H   0  0  0  1  0  1  0  0  0  0  0  0
    1.7275    3.5962    2.6133 H   0  0  0  1  0  1  0  0  0  0  0  0
    2.3714    3.7743   -1.6006 H   0  0  0  1  0  1  0  0  0  0  0  0
   -3.1302   -1.0865    1.6918 H   0  0  0  1  0  1  0  0  0  0  0  0
    2.1230    6.0175    2.7875 H   0  0  0  1  0  1  0  0  0  0  0  0
    2.7719    6.1963   -1.4485 H   0  0  0  1  0  1  0  0  0  0  0  0
   -3.7319   -7.4370    0.1679 H   0  0  0  1  0  1  0  0  0  0  0  0
   -4.6784   -6.6565   -1.1218 H   0  0  0  1  0  1  0  0  0  0  0  0
   -3.1948   -7.5534   -1.5251 H   0  0  0  1  0  1  0  0  0  0  0  0
   -3.7074    1.7060    0.6525 H   0  0  0  1  0  1  0  0  0  0  0  0
   -4.1869    0.9681    2.3032 H   0  0  0  1  0  1  0  0  0  0  0  0
    3.0370    7.9957   -1.1929 H   0  0  0  1  0  1  0  0  0  0  0  0
    3.8856   13.2323   -0.7610 H   0  0  0  1  0  1  0  0  0  0  0  0
    3.4080   12.4460    1.6202 H   0  0  0  1  0  1  0  0  0  0  0  0
  1 19  1  0  0  0  0
  2 13  1  0  0  0  0
  2 14  1  0  0  0  0
  3 30  1  0  0  0  0
  3 31  1  0  0  0  0
  4 28  2  0  0  0  0
  5 10  1  0  0  0  0
  5 12  1  0  0  0  0
  5 13  1  0  0  0  0
  6  7  1  0  0  0  0
  6 10  2  0  0  0  0
  7 13  2  0  0  0  0
  8 28  1  0  0  0  0
  8 30  1  0  0  0  0
  8 50  1  0  0  0  0
  9 30  2  0  0  0  0
  9 32  1  0  0  0  0
 10 11  1  0  0  0  0
 11 16  2  0  0  0  0
 11 17  1  0  0  0  0
 12 23  1  0  0  0  0
 12 33  1  0  0  0  0
 12 34  1  0  0  0  0
 14 15  1  0  0  0  0
 14 35  1  0  0  0  0
 14 36  1  0  0  0  0
 15 21  2  0  0  0  0
 15 22  1  0  0  0  0
 16 19  1  0  0  0  0
 16 37  1  0  0  0  0
 17 20  2  0  0  0  0
 17 38  1  0  0  0  0
 18 19  2  0  0  0  0
 18 20  1  0  0  0  0
 18 27  1  0  0  0  0
 20 39  1  0  0  0  0
 21 25  1  0  0  0  0
 21 40  1  0  0  0  0
 22 26  2  0  0  0  0
 22 41  1  0  0  0  0
 23 29  2  0  0  0  0
 23 42  1  0  0  0  0
 24 25  2  0  0  0  0
 24 26  1  0  0  0  0
 24 28  1  0  0  0  0
 25 43  1  0  0  0  0
 26 44  1  0  0  0  0
 27 45  1  0  0  0  0
 27 46  1  0  0  0  0
 27 47  1  0  0  0  0
 29 48  1  0  0  0  0
 29 49  1  0  0  0  0
 31 32  2  0  0  0  0
 31 51  1  0  0  0  0
 32 52  1  0  0  0  0
M  END
> <Activity>
0.919

> <Mapped(file=504701.csv.activities,property=Cached(PUBCHEM_COMPOUND_CID))>
0.919

> <PUBCHEM_ATOM_DEF_STEREO_COUNT>
0

> <PUBCHEM_ATOM_UDEF_STEREO_COUNT>
0

> <PUBCHEM_BONDANNOTATIONS>
11  16  8
11  17  8
15  21  8
15  22  8
16  19  8
17  20  8
18  19  8
18  20  8
21  25  8
22  26  8
24  25  8
24  26  8
3  30  8
3  31  8
31  32  8
5  10  8
5  13  8
6  10  8
6  7  8
7  13  8
9  30  8
9  32  8

> <PUBCHEM_BOND_DEF_STEREO_COUNT>
0

> <PUBCHEM_BOND_UDEF_STEREO_COUNT>
0

> <PUBCHEM_CACTVS_COMPLEXITY>
636

> <PUBCHEM_CACTVS_HBOND_ACCEPTOR>
3

> <PUBCHEM_CACTVS_HBOND_DONOR>
1

> <PUBCHEM_CACTVS_ROTATABLE_BOND>
8

> <PUBCHEM_CACTVS_SUBSKEYS>
AAADceB7oABkAAAAAAAAAAAAAAAAAWLAAAAwYAAAAAAAAAAB9AAAHgYYAAAADALF2yS/kZfMEAiuAjN3dACS8Kt1D7ldyC04JtiIKLKhnxGEIQhoiQKIiacYiACOQAAAIAABAACAAABAAAIAAAAAAAAAAA==

> <PUBCHEM_CACTVS_TAUTO_COUNT>
3

> <PUBCHEM_CACTVS_TPSA>
126

> <PUBCHEM_COMPONENT_COUNT>
1

> <PUBCHEM_COMPOUND_CANONICALIZED>
1

> <PUBCHEM_COMPOUND_CID>
2212798

> <PUBCHEM_COORDINATE_TYPE>
1
5
255

> <PUBCHEM_EXACT_MASS>
481.07978

> <PUBCHEM_HEAVY_ATOM_COUNT>
32

> <PUBCHEM_ISOTOPIC_ATOM_COUNT>
0

> <PUBCHEM_IUPAC_CAS_NAME>
4-[[[5-(3-chloro-4-methylphenyl)-4-prop-2-enyl-1,2,4-triazol-3-yl]thio]methyl]-N-(2-thiazolyl)benzamide

> <PUBCHEM_IUPAC_INCHI>
InChI=1S/C23H20ClN5OS2/c1-3-11-29-20(18-7-4-15(2)19(24)13-18)27-28-23(29)32-14-16-5-8-17(9-6-16)21(30)26-22-25-10-12-31-22/h3-10,12-13H,1,11,14H2,2H3,(H,25,26,30)

> <PUBCHEM_IUPAC_INCHIKEY>
GHVNLWJHYZBHBO-UHFFFAOYSA-N

> <PUBCHEM_IUPAC_NAME>
4-[[5-(3-chloro-4-methylphenyl)-4-prop-2-enyl-1,2,4-triazol-3-yl]sulfanylmethyl]-N-(1,3-thiazol-2-yl)benzamide

> <PUBCHEM_IUPAC_OPENEYE_NAME>
4-[[4-allyl-5-(3-chloro-4-methyl-phenyl)-1,2,4-triazol-3-yl]sulfanylmethyl]-N-thiazol-2-yl-benzamide

> <PUBCHEM_IUPAC_SYSTEMATIC_NAME>
4-[[5-(3-chloranyl-4-methyl-phenyl)-4-prop-2-enyl-1,2,4-triazol-3-yl]sulfanylmethyl]-N-(1,3-thiazol-2-yl)benzamide

> <PUBCHEM_IUPAC_TRADITIONAL_NAME>
4-[[[4-allyl-5-(3-chloro-4-methyl-phenyl)-1,2,4-triazol-3-yl]thio]methyl]-N-thiazol-2-yl-benzamide

> <PUBCHEM_MOLECULAR_FORMULA>
C23H20ClN5OS2

> <PUBCHEM_MOLECULAR_WEIGHT>
482.0208

> <PUBCHEM_MONOISOTOPIC_WEIGHT>
481.07978

> <PUBCHEM_OPENEYE_CAN_SMILES>
CC1=C(C=C(C=C1)C2=NN=C(N2CC=C)SCC3=CC=C(C=C3)C(=O)NC4=NC=CS4)Cl

> <PUBCHEM_OPENEYE_ISO_SMILES>
CC1=C(C=C(C=C1)C2=NN=C(N2CC=C)SCC3=CC=C(C=C3)C(=O)NC4=NC=CS4)Cl

> <PUBCHEM_TOTAL_CHARGE>
0

> <PUBCHEM_XLOGP3_AA>
5.4

$$$$
Written by BCL::WriteToMDL,24982063
MBcorina  10171218483D 1   1.00000     0.00000 
CORINA 3.49 0026  01.06.2011
 57 59  0  0  0  0  0  0  0  0999 V2000
    0.7412    1.2949    0.8479 S   0  0  0  1  0  4  0  0  0  0  0  0
   -6.0582   -5.4658    0.7809 S   0  0  0  1  0  2  0  0  0  0  0  0
    0.8760   -0.0996    1.0856 O   0  0  0  1  0  1  0  0  0  0  0  0
    1.8181    2.2130    0.9769 O   0  0  0  1  0  1  0  0  0  0  0  0
   -4.6785    0.7543    3.6784 O   0  0  0  1  0  1  0  0  0  0  0  0
   -3.1109   -0.6669    4.3528 N   0  0  0  1  0  3  0  0  0  0  0  0
    0.1750    1.4528   -0.7002 N   0  0  0  1  0  3  0  0  0  0  0  0
   -2.4817    1.4311    3.2587 C   0  0  0  1  0  3  0  0  0  0  0  0
   -0.5293    1.8633    1.9284 C   0  0  0  1  0  3  0  0  0  0  0  0
   -2.5223    2.7761    3.6288 C   0  0  0  1  0  3  0  0  0  0  0  0
   -1.4761    0.9792    2.4024 C   0  0  0  1  0  3  0  0  0  0  0  0
   -4.1103   -1.5575    4.9482 C   0  0  0  1  0  4  0  0  0  0  0  0
   -3.4965    0.4880    3.7750 C   0  0  0  1  0  3  0  0  0  0  0  0
   -0.5748    3.1955    2.3000 C   0  0  0  1  0  3  0  0  0  0  0  0
   -1.5689    3.6499    3.1479 C   0  0  0  1  0  3  0  0  0  0  0  0
   -0.1036    2.7834   -1.2462 C   0  0  0  1  0  4  0  0  0  0  0  0
   -4.5968   -2.5333    3.9080 C   0  0  0  1  0  3  0  0  0  0  0  0
   -3.6046    3.2728    4.5524 C   0  0  0  1  0  4  0  0  0  0  0  0
   -1.6925   -1.0318    4.3855 C   0  0  0  1  0  4  0  0  0  0  0  0
   -0.2448    2.6925   -2.7438 C   0  0  0  1  0  3  0  0  0  0  0  0
   -3.9514   -3.7455    3.7440 C   0  0  0  1  0  3  0  0  0  0  0  0
   -5.6910   -2.2170    3.1235 C   0  0  0  1  0  3  0  0  0  0  0  0
   -1.4842    2.4552   -3.3080 C   0  0  0  1  0  3  0  0  0  0  0  0
    0.8642    2.8520   -3.5535 C   0  0  0  1  0  3  0  0  0  0  0  0
   -4.3940   -4.6420    2.7916 C   0  0  0  1  0  3  0  0  0  0  0  0
   -6.1398   -3.1089    2.1697 C   0  0  0  1  0  3  0  0  0  0  0  0
   -5.4898   -4.3251    1.9976 C   0  0  0  1  0  3  0  0  0  0  0  0
   -1.6137    2.3717   -4.6818 C   0  0  0  1  0  3  0  0  0  0  0  0
    0.7347    2.7686   -4.9273 C   0  0  0  1  0  3  0  0  0  0  0  0
   -0.5039    2.5260   -5.4913 C   0  0  0  1  0  3  0  0  0  0  0  0
   -7.4700   -4.6015    0.0391 C   0  0  0  1  0  4  0  0  0  0  0  0
   -1.4393   -0.0603    2.1120 H   0  0  0  1  0  1  0  0  0  0  0  0
   -3.6617   -2.1041    5.7776 H   0  0  0  1  0  1  0  0  0  0  0  0
   -4.9507   -0.9675    5.3141 H   0  0  0  1  0  1  0  0  0  0  0  0
    0.1689    3.8836    1.9261 H   0  0  0  1  0  1  0  0  0  0  0  0
   -1.5992    4.6910    3.4335 H   0  0  0  1  0  1  0  0  0  0  0  0
    0.0278    0.6643   -1.2456 H   0  0  0  1  0  1  0  0  0  0  0  0
   -1.0295    3.1659   -0.8165 H   0  0  0  1  0  1  0  0  0  0  0  0
    0.7171    3.4568   -0.9988 H   0  0  0  1  0  1  0  0  0  0  0  0
   -3.3107    3.0927    5.5865 H   0  0  0  1  0  1  0  0  0  0  0  0
   -3.7521    4.3416    4.3975 H   0  0  0  1  0  1  0  0  0  0  0  0
   -4.5337    2.7434    4.3413 H   0  0  0  1  0  1  0  0  0  0  0  0
   -1.4237   -1.5293    3.4537 H   0  0  0  1  0  1  0  0  0  0  0  0
   -1.0886   -0.1323    4.5045 H   0  0  0  1  0  1  0  0  0  0  0  0
   -1.5098   -1.7054    5.2228 H   0  0  0  1  0  1  0  0  0  0  0  0
   -3.1000   -3.9911    4.3613 H   0  0  0  1  0  1  0  0  0  0  0  0
   -6.1952   -1.2713    3.2573 H   0  0  0  1  0  1  0  0  0  0  0  0
   -2.3513    2.3346   -2.6756 H   0  0  0  1  0  1  0  0  0  0  0  0
    1.8317    3.0422   -3.1129 H   0  0  0  1  0  1  0  0  0  0  0  0
   -3.8892   -5.5881    2.6636 H   0  0  0  1  0  1  0  0  0  0  0  0
   -6.9948   -2.8614    1.5580 H   0  0  0  1  0  1  0  0  0  0  0  0
   -2.5819    2.1856   -5.1226 H   0  0  0  1  0  1  0  0  0  0  0  0
    1.6010    2.8936   -5.5599 H   0  0  0  1  0  1  0  0  0  0  0  0
   -0.6050    2.4605   -6.5645 H   0  0  0  1  0  1  0  0  0  0  0  0
   -7.9083   -5.2243   -0.7407 H   0  0  0  1  0  1  0  0  0  0  0  0
   -8.2173   -4.4008    0.8068 H   0  0  0  1  0  1  0  0  0  0  0  0
   -7.1326   -3.6601   -0.3945 H   0  0  0  1  0  1  0  0  0  0  0  0
  1  3  2  0  0  0  0
  1  4  2  0  0  0  0
  1  7  1  0  0  0  0
  1  9  1  0  0  0  0
  2 27  1  0  0  0  0
  2 31  1  0  0  0  0
  5 13  2  0  0  0  0
  6 12  1  0  0  0  0
  6 13  1  0  0  0  0
  6 19  1  0  0  0  0
  7 16  1  0  0  0  0
  7 37  1  0  0  0  0
  8 10  2  0  0  0  0
  8 11  1  0  0  0  0
  8 13  1  0  0  0  0
  9 11  2  0  0  0  0
  9 14  1  0  0  0  0
 10 15  1  0  0  0  0
 10 18  1  0  0  0  0
 11 32  1  0  0  0  0
 12 17  1  0  0  0  0
 12 33  1  0  0  0  0
 12 34  1  0  0  0  0
 14 15  2  0  0  0  0
 14 35  1  0  0  0  0
 15 36  1  0  0  0  0
 16 20  1  0  0  0  0
 16 38  1  0  0  0  0
 16 39  1  0  0  0  0
 17 21  2  0  0  0  0
 17 22  1  0  0  0  0
 18 40  1  0  0  0  0
 18 41  1  0  0  0  0
 18 42  1  0  0  0  0
 19 43  1  0  0  0  0
 19 44  1  0  0  0  0
 19 45  1  0  0  0  0
 20 23  2  0  0  0  0
 20 24  1  0  0  0  0
 21 25  1  0  0  0  0
 21 46  1  0  0  0  0
 22 26  2  0  0  0  0
 22 47  1  0  0  0  0
 23 28  1  0  0  0  0
 23 48  1  0  0  0  0
 24 29  2  0  0  0  0
 24 49  1  0  0  0  0
 25 27  2  0  0  0  0
 25 50  1  0  0  0  0
 26 27  1  0  0  0  0
 26 51  1  0  0  0  0
 28 30  2  0  0  0  0
 28 52  1  0  0  0  0
 29 30  1  0  0  0  0
 29 53  1  0  0  0  0
 30 54  1  0  0  0  0
 31 55  1  0  0  0  0
 31 56  1  0  0  0  0
 31 57  1  0  0  0  0
M  END
> <Activity>
0.87083

> <Mapped(file=504701.csv.activities,property=Cached(PUBCHEM_COMPOUND_CID))>
0.87083

> <PUBCHEM_ATOM_DEF_STEREO_COUNT>
0

> <PUBCHEM_ATOM_UDEF_STEREO_COUNT>
0

> <PUBCHEM_BONDANNOTATIONS>
10  15  8
14  15  8
17  21  8
17  22  8
20  23  8
20  24  8
21  25  8
22  26  8
23  28  8
24  29  8
25  27  8
26  27  8
28  30  8
29  30  8
8  10  8
8  11  8
9  11  8
9  14  8

> <PUBCHEM_BOND_DEF_STEREO_COUNT>
0

> <PUBCHEM_BOND_UDEF_STEREO_COUNT>
0

> <PUBCHEM_CACTVS_COMPLEXITY>
665

> <PUBCHEM_CACTVS_HBOND_ACCEPTOR>
5

> <PUBCHEM_CACTVS_HBOND_DONOR>
1

> <PUBCHEM_CACTVS_ROTATABLE_BOND>
8

> <PUBCHEM_CACTVS_SUBSKEYS>
AAADceB7MABgAAAAAAAAAAAAAAAAAAAAAAAwYMAAAAAAAAABUAAAHgQQQAAADADB2ASyAYNAAAqIAiFSEHDCABAkCBAIiJkIBMgIIDKglRGEIQhghgCIiYcYiICOkAAAgAAQAAAgAAEAACAAAAAAAAAAAA==

> <PUBCHEM_CACTVS_TAUTO_COUNT>
1

> <PUBCHEM_CACTVS_TPSA>
100

> <PUBCHEM_COMPONENT_COUNT>
1

> <PUBCHEM_COMPOUND_CANONICALIZED>
1

> <PUBCHEM_COMPOUND_CID>
24982063

> <PUBCHEM_COORDINATE_TYPE>
1
5
255

> <PUBCHEM_EXACT_MASS>
454.138485

> <PUBCHEM_HEAVY_ATOM_COUNT>
31

> <PUBCHEM_ISOTOPIC_ATOM_COUNT>
0

> <PUBCHEM_IUPAC_CAS_NAME>
N,2-dimethyl-N-[[4-(methylthio)phenyl]methyl]-5-[(phenylmethyl)sulfamoyl]benzamide

> <PUBCHEM_IUPAC_INCHI>
InChI=1S/C24H26N2O3S2/c1-18-9-14-22(31(28,29)25-16-19-7-5-4-6-8-19)15-23(18)24(27)26(2)17-20-10-12-21(30-3)13-11-20/h4-15,25H,16-17H2,1-3H3

> <PUBCHEM_IUPAC_INCHIKEY>
GHNOLASIXFSBRH-UHFFFAOYSA-N

> <PUBCHEM_IUPAC_NAME>
5-(benzylsulfamoyl)-N,2-dimethyl-N-[(4-methylsulfanylphenyl)methyl]benzamide

> <PUBCHEM_IUPAC_OPENEYE_NAME>
5-(benzylsulfamoyl)-N,2-dimethyl-N-[(4-methylsulfanylphenyl)methyl]benzamide

> <PUBCHEM_IUPAC_SYSTEMATIC_NAME>
N,2-dimethyl-N-[(4-methylsulfanylphenyl)methyl]-5-[(phenylmethyl)sulfamoyl]benzamide

> <PUBCHEM_IUPAC_TRADITIONAL_NAME>
5-(benzylsulfamoyl)-N,2-dimethyl-N-[4-(methylthio)benzyl]benzamide

> <PUBCHEM_MOLECULAR_FORMULA>
C24H26N2O3S2

> <PUBCHEM_MOLECULAR_WEIGHT>
454.60484

> <PUBCHEM_MONOISOTOPIC_WEIGHT>
454.138485

> <PUBCHEM_OPENEYE_CAN_SMILES>
CC1=C(C=C(C=C1)S(=O)(=O)NCC2=CC=CC=C2)C(=O)N(C)CC3=CC=C(C=C3)SC

> <PUBCHEM_OPENEYE_ISO_SMILES>
CC1=C(C=C(C=C1)S(=O)(=O)NCC2=CC=CC=C2)C(=O)N(C)CC3=CC=C(C=C3)SC

> <PUBCHEM_TOTAL_CHARGE>
0

> <PUBCHEM_XLOGP3_AA>
4.2

$$$$
Written by BCL::WriteToMDL,44601856
MBcorina  10171218483D 1   1.00000     0.00000 
CORINA 3.49 0026  01.06.2011
105111  0  0  0  0  0  0  0  0999 V2000
   -3.3509   -4.5278   -1.4952 O   0  0  0  1  0  1  0  0  0  0  0  0
   -6.1251   -4.5801   -4.3770 O   0  0  0  1  0  1  0  0  0  0  0  0
   -5.3362   -4.5382   -0.2626 O   0  0  0  1  0  1  0  0  0  0  0  0
    0.4985    0.7918  -10.1790 O   0  0  0  1  0  2  0  0  0  0  0  0
  -11.2050   -2.2769   -7.6782 O   0  0  0  1  0  1  0  0  0  0  0  0
   -8.9022    0.3706   -8.3874 O   0  0  0  1  0  2  0  0  0  0  0  0
   -3.0513   -4.1213   -3.6409 N   0  0  0  1  0  3  0  0  0  0  0  0
   -2.4275   -2.1620   -6.7444 N   0  0  0  1  0  3  0  0  0  0  0  0
   -6.9207   -3.2018   -5.9227 N   0  0  0  1  0  3  0  0  0  0  0  0
   -9.2512   -1.9800   -6.6623 N   0  0  0  1  0  3  0  0  0  0  0  0
   -5.2788   -2.9792    1.3148 N   0  0  0  1  0  3  0  0  0  0  0  0
   -3.5176   -3.6428   -4.9376 C   0  0  0  1  0  4  0  0  0  0  0  0
   -4.7310   -2.7403   -4.8686 C   0  0  0  1  0  4  0  0  0  0  0  0
   -4.8037   -1.9998   -3.5337 C   0  0  0  1  0  4  0  0  0  0  0  0
   -2.3674   -2.9486   -5.6262 C   0  0  0  1  0  3  0  0  0  0  0  0
   -4.9257   -3.0453   -2.4165 C   0  0  0  1  0  4  0  0  0  0  0  0
   -3.8834   -4.8622   -5.7862 C   0  0  0  1  0  4  0  0  0  0  0  0
   -1.7476   -4.8152   -3.5951 C   0  0  0  1  0  4  0  0  0  0  0  0
   -1.0890   -3.0378   -5.1925 C   0  0  0  1  0  3  0  0  0  0  0  0
   -3.7218   -3.9469   -2.4932 C   0  0  0  1  0  3  0  0  0  0  0  0
   -0.6480   -3.8187   -3.9813 C   0  0  0  1  0  4  0  0  0  0  0  0
   -5.9750   -3.5741   -5.0376 C   0  0  0  1  0  3  0  0  0  0  0  0
   -0.2789   -2.2542   -6.1017 C   0  0  0  1  0  3  0  0  0  0  0  0
   -4.9634   -2.3469   -1.0557 C   0  0  0  1  0  4  0  0  0  0  0  0
   -1.1750   -1.7196   -7.0646 C   0  0  0  1  0  3  0  0  0  0  0  0
   -4.2840   -4.4048   -7.1902 C   0  0  0  1  0  4  0  0  0  0  0  0
   -8.0819   -4.0639   -6.1836 C   0  0  0  1  0  4  0  0  0  0  0  0
   -6.8122   -1.9236   -6.6399 C   0  0  0  1  0  4  0  0  0  0  0  0
    1.0947   -1.9866   -6.1519 C   0  0  0  1  0  3  0  0  0  0  0  0
   -5.2062   -3.3674    0.0262 C   0  0  0  1  0  3  0  0  0  0  0  0
   -0.7108   -0.9056   -8.0919 C   0  0  0  1  0  3  0  0  0  0  0  0
   -8.0928   -1.1153   -6.3973 C   0  0  0  1  0  4  0  0  0  0  0  0
   -9.3599   -3.2511   -5.9419 C   0  0  0  1  0  4  0  0  0  0  0  0
    0.6633   -0.6497   -8.1231 C   0  0  0  1  0  3  0  0  0  0  0  0
    1.5363   -1.1840   -7.1701 C   0  0  0  1  0  3  0  0  0  0  0  0
    1.2089    0.2090   -9.1942 C   0  0  0  1  0  3  0  0  0  0  0  0
  -10.1974   -1.6073   -7.5468 C   0  0  0  1  0  3  0  0  0  0  0  0
   -5.5148   -3.9713    2.3666 C   0  0  0  1  0  4  0  0  0  0  0  0
    2.5157    0.5483   -9.3572 C   0  0  0  1  0  3  0  0  0  0  0  0
  -10.0126   -0.3948   -8.3509 C   0  0  0  1  0  3  0  0  0  0  0  0
   -5.5519   -3.2834    3.7069 C   0  0  0  1  0  3  0  0  0  0  0  0
    2.5813    1.3744  -10.4972 C   0  0  0  1  0  3  0  0  0  0  0  0
    1.3252    1.4973  -10.9686 C   0  0  0  1  0  3  0  0  0  0  0  0
  -10.9344    0.1574   -9.1933 C   0  0  0  1  0  3  0  0  0  0  0  0
   -4.7607   -3.6841    4.6710 C   0  0  0  1  0  3  0  0  0  0  0  0
  -10.3385    1.2997   -9.7505 C   0  0  0  1  0  3  0  0  0  0  0  0
   -9.0949    1.3934   -9.2303 C   0  0  0  1  0  3  0  0  0  0  0  0
   -4.7405   -2.9463    5.9848 C   0  0  0  1  0  4  0  0  0  0  0  0
   -3.8708   -4.8829    4.4662 C   0  0  0  1  0  4  0  0  0  0  0  0
   -5.6873   -3.6339    6.9705 C   0  0  0  1  0  4  0  0  0  0  0  0
   -5.6671   -2.8960    8.2844 C   0  0  0  1  0  3  0  0  0  0  0  0
   -6.7746   -2.3923    8.7699 C   0  0  0  1  0  3  0  0  0  0  0  0
   -8.0688   -2.5497    8.0140 C   0  0  0  1  0  4  0  0  0  0  0  0
   -6.7546   -1.6555   10.0843 C   0  0  0  1  0  4  0  0  0  0  0  0
   -4.6795   -2.0117   -5.6777 H   0  0  0  1  0  1  0  0  0  0  0  0
   -3.8981   -1.4106   -3.3896 H   0  0  0  1  0  1  0  0  0  0  0  0
   -5.6754   -1.3454   -3.5225 H   0  0  0  1  0  1  0  0  0  0  0  0
   -5.8344   -3.6307   -2.5567 H   0  0  0  1  0  1  0  0  0  0  0  0
   -3.0240   -5.5294   -5.8528 H   0  0  0  1  0  1  0  0  0  0  0  0
   -4.7178   -5.3895   -5.3238 H   0  0  0  1  0  1  0  0  0  0  0  0
   -1.5664   -5.1872   -2.5867 H   0  0  0  1  0  1  0  0  0  0  0  0
   -1.7511   -5.6471   -4.2994 H   0  0  0  1  0  1  0  0  0  0  0  0
   -0.4694   -3.1342   -3.1520 H   0  0  0  1  0  1  0  0  0  0  0  0
    0.2696   -4.3602   -4.2115 H   0  0  0  1  0  1  0  0  0  0  0  0
   -3.2368   -1.9507   -7.2356 H   0  0  0  1  0  1  0  0  0  0  0  0
   -4.0111   -1.8475   -0.8771 H   0  0  0  1  0  1  0  0  0  0  0  0
   -5.7670   -1.6105   -1.0475 H   0  0  0  1  0  1  0  0  0  0  0  0
   -3.4128   -3.9954   -7.7014 H   0  0  0  1  0  1  0  0  0  0  0  0
   -4.6693   -5.2550   -7.7531 H   0  0  0  1  0  1  0  0  0  0  0  0
   -5.0555   -3.6383   -7.1163 H   0  0  0  1  0  1  0  0  0  0  0  0
   -5.9522   -1.3670   -6.2674 H   0  0  0  1  0  1  0  0  0  0  0  0
   -6.6950   -2.1117   -7.7071 H   0  0  0  1  0  1  0  0  0  0  0  0
   -8.0572   -4.4080   -7.2176 H   0  0  0  1  0  1  0  0  0  0  0  0
   -8.0603   -4.9205   -5.5099 H   0  0  0  1  0  1  0  0  0  0  0  0
    1.7758   -2.3947   -5.4198 H   0  0  0  1  0  1  0  0  0  0  0  0
   -1.3802   -0.4910   -8.8312 H   0  0  0  1  0  1  0  0  0  0  0  0
   -8.1138   -0.2590   -7.0714 H   0  0  0  1  0  1  0  0  0  0  0  0
   -8.1222   -0.7710   -5.3635 H   0  0  0  1  0  1  0  0  0  0  0  0
   -9.4790   -3.0584   -4.8757 H   0  0  0  1  0  1  0  0  0  0  0  0
  -10.2189   -3.8099   -6.3134 H   0  0  0  1  0  1  0  0  0  0  0  0
    2.5898   -0.9563   -7.2387 H   0  0  0  1  0  1  0  0  0  0  0  0
   -5.1748   -2.0428    1.5458 H   0  0  0  1  0  1  0  0  0  0  0  0
   -6.4670   -4.4707    2.1879 H   0  0  0  1  0  1  0  0  0  0  0  0
   -4.7112   -4.7077    2.3583 H   0  0  0  1  0  1  0  0  0  0  0  0
    3.3432    0.2437   -8.7336 H   0  0  0  1  0  1  0  0  0  0  0  0
   -6.2309   -2.4600    3.8726 H   0  0  0  1  0  1  0  0  0  0  0  0
    3.4705    1.8240  -10.9140 H   0  0  0  1  0  1  0  0  0  0  0  0
    1.0317    2.0678  -11.8373 H   0  0  0  1  0  1  0  0  0  0  0  0
  -11.9292   -0.2129   -9.3924 H   0  0  0  1  0  1  0  0  0  0  0  0
  -10.7893    1.9764  -10.4613 H   0  0  0  1  0  1  0  0  0  0  0  0
   -8.3751    2.1660   -9.4567 H   0  0  0  1  0  1  0  0  0  0  0  0
   -3.7283   -2.9520    6.3892 H   0  0  0  1  0  1  0  0  0  0  0  0
   -5.0635   -1.9170    5.8286 H   0  0  0  1  0  1  0  0  0  0  0  0
   -2.9525   -4.5727    3.9676 H   0  0  0  1  0  1  0  0  0  0  0  0
   -3.6281   -5.3246    5.4327 H   0  0  0  1  0  1  0  0  0  0  0  0
   -4.3881   -5.6184    3.8502 H   0  0  0  1  0  1  0  0  0  0  0  0
   -6.6995   -3.6281    6.5662 H   0  0  0  1  0  1  0  0  0  0  0  0
   -5.3643   -4.6631    7.1268 H   0  0  0  1  0  1  0  0  0  0  0  0
   -4.7395   -2.7826    8.8258 H   0  0  0  1  0  1  0  0  0  0  0  0
   -8.5153   -3.5144    8.2549 H   0  0  0  1  0  1  0  0  0  0  0  0
   -8.7544   -1.7511    8.2972 H   0  0  0  1  0  1  0  0  0  0  0  0
   -7.8727   -2.4975    6.9430 H   0  0  0  1  0  1  0  0  0  0  0  0
   -5.7386   -1.6440   10.4790 H   0  0  0  1  0  1  0  0  0  0  0  0
   -7.0969   -0.6319    9.9323 H   0  0  0  1  0  1  0  0  0  0  0  0
   -7.4138   -2.1577   10.7924 H   0  0  0  1  0  1  0  0  0  0  0  0
  1 20  2  0  0  0  0
  2 22  2  0  0  0  0
  3 30  2  0  0  0  0
  4 36  1  0  0  0  0
  4 43  1  0  0  0  0
  5 37  2  0  0  0  0
  6 40  1  0  0  0  0
  6 47  1  0  0  0  0
  7 12  1  0  0  0  0
  7 18  1  0  0  0  0
  7 20  1  0  0  0  0
  8 15  1  0  0  0  0
  8 25  1  0  0  0  0
  8 65  1  0  0  0  0
  9 22  1  0  0  0  0
  9 27  1  0  0  0  0
  9 28  1  0  0  0  0
 10 32  1  0  0  0  0
 10 33  1  0  0  0  0
 10 37  1  0  0  0  0
 11 30  1  0  0  0  0
 11 38  1  0  0  0  0
 11 82  1  0  0  0  0
 12 13  1  0  0  0  0
 12 15  1  0  0  0  0
 12 17  1  0  0  0  0
 13 14  1  0  0  0  0
 13 22  1  0  0  0  0
 13 55  1  0  0  0  0
 14 16  1  0  0  0  0
 14 56  1  0  0  0  0
 14 57  1  0  0  0  0
 15 19  2  0  0  0  0
 16 20  1  0  0  0  0
 16 24  1  0  0  0  0
 16 58  1  0  0  0  0
 17 26  1  0  0  0  0
 17 59  1  0  0  0  0
 17 60  1  0  0  0  0
 18 21  1  0  0  0  0
 18 61  1  0  0  0  0
 18 62  1  0  0  0  0
 19 21  1  0  0  0  0
 19 23  1  0  0  0  0
 21 63  1  0  0  0  0
 21 64  1  0  0  0  0
 23 25  2  0  0  0  0
 23 29  1  0  0  0  0
 24 30  1  0  0  0  0
 24 66  1  0  0  0  0
 24 67  1  0  0  0  0
 25 31  1  0  0  0  0
 26 68  1  0  0  0  0
 26 69  1  0  0  0  0
 26 70  1  0  0  0  0
 27 33  1  0  0  0  0
 27 73  1  0  0  0  0
 27 74  1  0  0  0  0
 28 32  1  0  0  0  0
 28 71  1  0  0  0  0
 28 72  1  0  0  0  0
 29 35  2  0  0  0  0
 29 75  1  0  0  0  0
 31 34  2  0  0  0  0
 31 76  1  0  0  0  0
 32 77  1  0  0  0  0
 32 78  1  0  0  0  0
 33 79  1  0  0  0  0
 33 80  1  0  0  0  0
 34 35  1  0  0  0  0
 34 36  1  0  0  0  0
 35 81  1  0  0  0  0
 36 39  2  0  0  0  0
 37 40  1  0  0  0  0
 38 41  1  0  0  0  0
 38 83  1  0  0  0  0
 38 84  1  0  0  0  0
 39 42  1  0  0  0  0
 39 85  1  0  0  0  0
 40 44  2  0  0  0  0
 41 45  2  0  0  0  0
 41 86  1  0  0  0  0
 42 43  2  0  0  0  0
 42 87  1  0  0  0  0
 43 88  1  0  0  0  0
 44 46  1  0  0  0  0
 44 89  1  0  0  0  0
 45 48  1  0  0  0  0
 45 49  1  0  0  0  0
 46 47  2  0  0  0  0
 46 90  1  0  0  0  0
 47 91  1  0  0  0  0
 48 50  1  0  0  0  0
 48 92  1  0  0  0  0
 48 93  1  0  0  0  0
 49 94  1  0  0  0  0
 49 95  1  0  0  0  0
 49 96  1  0  0  0  0
 50 51  1  0  0  0  0
 50 97  1  0  0  0  0
 50 98  1  0  0  0  0
 51 52  2  0  0  0  0
 51 99  1  0  0  0  0
 52 53  1  0  0  0  0
 52 54  1  0  0  0  0
 53100  1  0  0  0  0
 53101  1  0  0  0  0
 53102  1  0  0  0  0
 54103  1  0  0  0  0
 54104  1  0  0  0  0
 54105  1  0  0  0  0
M  END
> <Activity>
1.067

> <Mapped(file=504701.csv.activities,property=Cached(PUBCHEM_COMPOUND_CID))>
1.067

> <PUBCHEM_ATOM_DEF_STEREO_COUNT>
3

> <PUBCHEM_ATOM_UDEF_STEREO_COUNT>
0

> <PUBCHEM_BONDANNOTATIONS>
12  17  6
13  22  6
15  19  8
16  24  5
19  23  8
23  25  8
23  29  8
25  31  8
29  35  8
31  34  8
34  35  8
36  39  8
39  42  8
4  36  8
4  43  8
40  44  8
42  43  8
44  46  8
46  47  8
6  40  8
6  47  8
8  15  8
8  25  8

> <PUBCHEM_BOND_DEF_STEREO_COUNT>
1

> <PUBCHEM_BOND_UDEF_STEREO_COUNT>
0

> <PUBCHEM_CACTVS_COMPLEXITY>
1450

> <PUBCHEM_CACTVS_HBOND_ACCEPTOR>
6

> <PUBCHEM_CACTVS_HBOND_DONOR>
2

> <PUBCHEM_CACTVS_ROTATABLE_BOND>
11

> <PUBCHEM_CACTVS_SUBSKEYS>
AAADcfB/uAAAAAAAAAAAAAAAAAAAAWJEgAA8WLEAAAAAAFix/gAAHgAQAAAADYzhngYyxPPJlECoA61y1AKCiCAlIiAImaH+bNgOZvrE9b+XOSjk1hHY6Ye93/KewAAAQAACAACAAACAAAQAAAAAAAAAAA==

> <PUBCHEM_CACTVS_TAUTO_COUNT>
4

> <PUBCHEM_CACTVS_TPSA>
132

> <PUBCHEM_COMPONENT_COUNT>
1

> <PUBCHEM_COMPOUND_CANONICALIZED>
1

> <PUBCHEM_COMPOUND_CID>
44601856

> <PUBCHEM_COORDINATE_TYPE>
1
5
255

> <PUBCHEM_EXACT_MASS>
733.383934

> <PUBCHEM_HEAVY_ATOM_COUNT>
54

> <PUBCHEM_ISOTOPIC_ATOM_COUNT>
0

> <PUBCHEM_IUPAC_CAS_NAME>
2-[(1S,3R,12bS)-12b-ethyl-10-(2-furanyl)-1-[[4-[2-furanyl(oxo)methyl]-1-piperazinyl]-oxomethyl]-4-oxo-1,2,3,6,7,12-hexahydroindolo[2,3-a]quinolizin-3-yl]-N-[(2E)-3,7-dimethylocta-2,6-dienyl]acetamide

> <PUBCHEM_IUPAC_INCHI>
InChI=1S/C43H51N5O6/c1-5-43-34(41(51)46-19-21-47(22-20-46)42(52)37-12-8-24-54-37)25-31(27-38(49)44-17-15-29(4)10-6-9-28(2)3)40(50)48(43)18-16-33-32-14-13-30(36-11-7-23-53-36)26-35(32)45-39(33)43/h7-9,11-15,23-24,26,31,34,45H,5-6,10,16-22,25,27H2,1-4H3,(H,44,49)/b29-15+/t31-,34-,43+/m1/s1

> <PUBCHEM_IUPAC_INCHIKEY>
JWCORXGARXYQHK-UDRADUAXSA-N

> <PUBCHEM_IUPAC_NAME>
2-[(1S,3R,12bS)-12b-ethyl-1-[4-(furan-2-carbonyl)piperazine-1-carbonyl]-10-(furan-2-yl)-4-oxo-1,2,3,6,7,12-hexahydroindolo[2,3-a]quinolizin-3-yl]-N-[(2E)-3,7-dimethylocta-2,6-dienyl]acetamide

> <PUBCHEM_IUPAC_OPENEYE_NAME>
2-[(1S,3R,12bS)-12b-ethyl-1-[4-(furan-2-carbonyl)piperazine-1-carbonyl]-10-(2-furyl)-4-oxo-1,2,3,6,7,12-hexahydroindolo[2,3-a]quinolizin-3-yl]-N-[(2E)-3,7-dimethylocta-2,6-dienyl]acetamide

> <PUBCHEM_IUPAC_SYSTEMATIC_NAME>
2-[(1S,3R,12bS)-12b-ethyl-10-(furan-2-yl)-1-[4-(furan-2-ylcarbonyl)piperazin-1-yl]carbonyl-4-oxidanylidene-1,2,3,6,7,12-hexahydroindolo[2,3-a]quinolizin-3-yl]-N-[(2E)-3,7-dimethylocta-2,6-dienyl]ethanamide

> <PUBCHEM_IUPAC_TRADITIONAL_NAME>
2-[(1S,3R,12bS)-12b-ethyl-1-[4-(2-furoyl)piperazine-1-carbonyl]-10-(2-furyl)-4-keto-1,2,3,6,7,12-hexahydropyrido[2,1-a]$b-carbolin-3-yl]-N-[(2E)-3,7-dimethylocta-2,6-dienyl]acetamide

> <PUBCHEM_MOLECULAR_FORMULA>
C43H51N5O6

> <PUBCHEM_MOLECULAR_WEIGHT>
733.89494

> <PUBCHEM_MONOISOTOPIC_WEIGHT>
733.383934

> <PUBCHEM_OPENEYE_CAN_SMILES>
CCC12C(CC(C(=O)N1CCC3=C2NC4=C3C=CC(=C4)C5=CC=CO5)CC(=O)NCC=C(C)CCC=C(C)C)C(=O)N6CCN(CC6)C(=O)C7=CC=CO7

> <PUBCHEM_OPENEYE_ISO_SMILES>
CC[C@@]12[C@H](C[C@@H](C(=O)N1CCC3=C2NC4=C3C=CC(=C4)C5=CC=CO5)CC(=O)NC/C=C(\C)/CCC=C(C)C)C(=O)N6CCN(CC6)C(=O)C7=CC=CO7

> <PUBCHEM_TOTAL_CHARGE>
0

> <PUBCHEM_XLOGP3_AA>
5.4

$$$$
Written by BCL::WriteToMDL,645771
MBcorina  10171218483D 1   1.00000     0.00000 
CORINA 3.49 0026  01.06.2011
 46 49  0  0  0  0  0  0  0  0999 V2000
   -0.0217    1.4082    0.0098 S   0  0  0  1  0  4  0  0  0  0  0  0
   -3.2736    3.1204    5.1129 S   0  0  0  1  0  4  0  0  0  0  0  0
   -0.0042   -0.0126    0.0032 O   0  0  0  1  0  1  0  0  0  0  0  0
    1.1583    2.2000    0.0016 O   0  0  0  1  0  1  0  0  0  0  0  0
   -4.4538    2.3289    5.1208 O   0  0  0  1  0  1  0  0  0  0  0  0
   -3.2907    4.5413    5.1197 O   0  0  0  1  0  1  0  0  0  0  0  0
   -0.9047    1.8712   -1.3124 N   0  0  0  1  0  3  0  0  0  0  0  0
   -2.3908    2.6570    6.4351 N   0  0  0  1  0  3  0  0  0  0  0  0
   -1.1394    3.2932   -1.5752 C   0  0  0  1  0  4  0  0  0  0  0  0
   -1.1827    3.7438   -3.0367 C   0  0  0  1  0  4  0  0  0  0  0  0
   -2.4728    3.6824   -2.2165 C   0  0  0  1  0  4  0  0  0  0  0  0
   -2.6560    1.3724    7.0971 C   0  0  0  1  0  4  0  0  0  0  0  0
   -2.6692    1.6193    8.6113 C   0  0  0  1  0  4  0  0  0  0  0  0
   -1.2829    2.0940    9.0463 C   0  0  0  1  0  4  0  0  0  0  0  0
   -0.9329    1.8880    1.4396 C   0  0  0  1  0  3  0  0  0  0  0  0
   -1.3764    3.4798    6.9368 C   0  0  0  1  0  3  0  0  0  0  0  0
   -0.8270    3.2453    8.1893 C   0  0  0  1  0  3  0  0  0  0  0  0
   -2.3624    2.6406    3.6832 C   0  0  0  1  0  3  0  0  0  0  0  0
   -1.8471    1.0164    2.0012 C   0  0  0  1  0  3  0  0  0  0  0  0
   -0.7294    3.1338    2.0030 C   0  0  0  1  0  3  0  0  0  0  0  0
   -2.5620    1.3928    3.1229 C   0  0  0  1  0  3  0  0  0  0  0  0
   -1.4443    3.5102    3.1247 C   0  0  0  1  0  3  0  0  0  0  0  0
   -0.9257    4.5453    6.1658 C   0  0  0  1  0  3  0  0  0  0  0  0
    0.1684    4.0818    8.6655 C   0  0  0  1  0  3  0  0  0  0  0  0
    0.0724    5.3708    6.6440 C   0  0  0  1  0  3  0  0  0  0  0  0
    0.6106    5.1447    7.9014 C   0  0  0  1  0  3  0  0  0  0  0  0
   -0.7098    3.9827   -0.8484 H   0  0  0  1  0  1  0  0  0  0  0  0
   -0.7820    4.7299   -3.2714 H   0  0  0  1  0  1  0  0  0  0  0  0
   -1.0366    2.9822   -3.8027 H   0  0  0  1  0  1  0  0  0  0  0  0
   -3.1755    2.8805   -2.4429 H   0  0  0  1  0  1  0  0  0  0  0  0
   -2.9209    4.6282   -1.9117 H   0  0  0  1  0  1  0  0  0  0  0  0
   -1.2665    1.2009   -1.9129 H   0  0  0  1  0  1  0  0  0  0  0  0
   -3.6236    0.9852    6.7777 H   0  0  0  1  0  1  0  0  0  0  0  0
   -1.8710    0.6589    6.8462 H   0  0  0  1  0  1  0  0  0  0  0  0
   -3.4086    2.3838    8.8502 H   0  0  0  1  0  1  0  0  0  0  0  0
   -2.9177    0.6935    9.1302 H   0  0  0  1  0  1  0  0  0  0  0  0
   -1.3218    2.4134   10.0878 H   0  0  0  1  0  1  0  0  0  0  0  0
   -0.5742    1.2713    8.9512 H   0  0  0  1  0  1  0  0  0  0  0  0
   -2.0031    0.0415    1.5634 H   0  0  0  1  0  1  0  0  0  0  0  0
   -0.0117    3.8129    1.5670 H   0  0  0  1  0  1  0  0  0  0  0  0
   -3.2793    0.7134    3.5592 H   0  0  0  1  0  1  0  0  0  0  0  0
   -1.2883    4.4851    3.5625 H   0  0  0  1  0  1  0  0  0  0  0  0
   -1.3563    4.7272    5.1922 H   0  0  0  1  0  1  0  0  0  0  0  0
    0.6009    3.9028    9.6387 H   0  0  0  1  0  1  0  0  0  0  0  0
    0.4230    6.1982    6.0450 H   0  0  0  1  0  1  0  0  0  0  0  0
    1.3872    5.7933    8.2791 H   0  0  0  1  0  1  0  0  0  0  0  0
  1  3  2  0  0  0  0
  1  4  2  0  0  0  0
  1  7  1  0  0  0  0
  1 15  1  0  0  0  0
  2  5  2  0  0  0  0
  2  6  2  0  0  0  0
  2  8  1  0  0  0  0
  2 18  1  0  0  0  0
  7  9  1  0  0  0  0
  7 32  1  0  0  0  0
  8 12  1  0  0  0  0
  8 16  1  0  0  0  0
  9 10  1  0  0  0  0
  9 11  1  0  0  0  0
  9 27  1  0  0  0  0
 10 11  1  0  0  0  0
 10 28  1  0  0  0  0
 10 29  1  0  0  0  0
 11 30  1  0  0  0  0
 11 31  1  0  0  0  0
 12 13  1  0  0  0  0
 12 33  1  0  0  0  0
 12 34  1  0  0  0  0
 13 14  1  0  0  0  0
 13 35  1  0  0  0  0
 13 36  1  0  0  0  0
 14 17  1  0  0  0  0
 14 37  1  0  0  0  0
 14 38  1  0  0  0  0
 15 19  2  0  0  0  0
 15 20  1  0  0  0  0
 16 17  1  0  0  0  0
 16 23  2  0  0  0  0
 17 24  2  0  0  0  0
 18 21  2  0  0  0  0
 18 22  1  0  0  0  0
 19 21  1  0  0  0  0
 19 39  1  0  0  0  0
 20 22  2  0  0  0  0
 20 40  1  0  0  0  0
 21 41  1  0  0  0  0
 22 42  1  0  0  0  0
 23 25  1  0  0  0  0
 23 43  1  0  0  0  0
 24 26  1  0  0  0  0
 24 44  1  0  0  0  0
 25 26  2  0  0  0  0
 25 45  1  0  0  0  0
 26 46  1  0  0  0  0
M  END
> <Activity>
6.713

> <Mapped(file=504701.csv.activities,property=Cached(PUBCHEM_COMPOUND_CID))>
6.713

> <PUBCHEM_ATOM_DEF_STEREO_COUNT>
0

> <PUBCHEM_ATOM_UDEF_STEREO_COUNT>
0

> <PUBCHEM_BONDANNOTATIONS>
15  19  8
15  20  8
16  17  8
16  23  8
17  24  8
18  21  8
18  22  8
19  21  8
20  22  8
23  25  8
24  26  8
25  26  8

> <PUBCHEM_BOND_DEF_STEREO_COUNT>
0

> <PUBCHEM_BOND_UDEF_STEREO_COUNT>
0

> <PUBCHEM_CACTVS_COMPLEXITY>
699

> <PUBCHEM_CACTVS_HBOND_ACCEPTOR>
6

> <PUBCHEM_CACTVS_HBOND_DONOR>
1

> <PUBCHEM_CACTVS_ROTATABLE_BOND>
5

> <PUBCHEM_CACTVS_SUBSKEYS>
AAADceB7OABgAAAAAAAAAAAAGAAAAAAAAAA8YIAAAAAAAACxQAAAHAQQQAAADCjBWAQwwYJAAAKAAiRCQHDCABAhAgAIiJgIZIgIICLAkZGEIAhgkADIyAcQgIAOAAgAAAACAAAAEAAAAAQAAAAAAAAAAA==

> <PUBCHEM_CACTVS_TAUTO_COUNT>
1

> <PUBCHEM_CACTVS_TPSA>
100

> <PUBCHEM_COMPONENT_COUNT>
1

> <PUBCHEM_COMPOUND_CANONICALIZED>
1

> <PUBCHEM_COMPOUND_CID>
645771

> <PUBCHEM_COORDINATE_TYPE>
1
5
255

> <PUBCHEM_EXACT_MASS>
392.086449

> <PUBCHEM_HEAVY_ATOM_COUNT>
26

> <PUBCHEM_ISOTOPIC_ATOM_COUNT>
0

> <PUBCHEM_IUPAC_CAS_NAME>
N-cyclopropyl-4-(3,4-dihydro-2H-quinolin-1-ylsulfonyl)benzenesulfonamide

> <PUBCHEM_IUPAC_INCHI>
InChI=1S/C18H20N2O4S2/c21-25(22,19-15-7-8-15)16-9-11-17(12-10-16)26(23,24)20-13-3-5-14-4-1-2-6-18(14)20/h1-2,4,6,9-12,15,19H,3,5,7-8,13H2

> <PUBCHEM_IUPAC_INCHIKEY>
NDSGBWBSYKPKKT-UHFFFAOYSA-N

> <PUBCHEM_IUPAC_NAME>
N-cyclopropyl-4-(3,4-dihydro-2H-quinolin-1-ylsulfonyl)benzenesulfonamide

> <PUBCHEM_IUPAC_OPENEYE_NAME>
N-cyclopropyl-4-(3,4-dihydro-2H-quinolin-1-ylsulfonyl)benzenesulfonamide

> <PUBCHEM_IUPAC_SYSTEMATIC_NAME>
N-cyclopropyl-4-(3,4-dihydro-2H-quinolin-1-ylsulfonyl)benzenesulfonamide

> <PUBCHEM_IUPAC_TRADITIONAL_NAME>
N-cyclopropyl-4-(3,4-dihydro-2H-quinolin-1-ylsulfonyl)benzenesulfonamide

> <PUBCHEM_MOLECULAR_FORMULA>
C18H20N2O4S2

> <PUBCHEM_MOLECULAR_WEIGHT>
392.4924

> <PUBCHEM_MONOISOTOPIC_WEIGHT>
392.086449

> <PUBCHEM_OPENEYE_CAN_SMILES>
C1CC2=CC=CC=C2N(C1)S(=O)(=O)C3=CC=C(C=C3)S(=O)(=O)NC4CC4

> <PUBCHEM_OPENEYE_ISO_SMILES>
C1CC2=CC=CC=C2N(C1)S(=O)(=O)C3=CC=C(C=C3)S(=O)(=O)NC4CC4

> <PUBCHEM_TOTAL_CHARGE>
0

> <PUBCHEM_XLOGP3_AA>
2.5

$$$$
Written by BCL::WriteToMDL,682575
MBcorina  10171218483D 1   1.00000     0.00000 
CORINA 3.49 0026  01.06.2011
 40 42  0  0  0  0  0  0  0  0999 V2000
    0.0361    1.7170    0.2328 S   0  0  0  1  0  2  0  0  0  0  0  0
   -3.0764   -2.3052    1.6595 O   0  0  0  1  0  2  0  0  0  0  0  0
    3.4655    0.2184    0.4871 O   0  0  0  1  0  1  0  0  0  0  0  0
   -1.0212   -0.8723    0.5283 N   0  0  0  1  0  3  0  0  0  0  0  0
    1.3270   -0.3987    0.5191 N   0  0  0  1  0  2  0  0  0  0  0  0
   -0.8550   -2.3231    0.7098 C   0  0  0  1  0  4  0  0  0  0  0  0
   -2.3896   -0.3392    0.4347 C   0  0  0  1  0  4  0  0  0  0  0  0
   -1.7419   -2.7689    1.8780 C   0  0  0  1  0  4  0  0  0  0  0  0
   -3.2017   -0.8817    1.6163 C   0  0  0  1  0  4  0  0  0  0  0  0
    0.0660   -0.0422    0.4493 C   0  0  0  1  0  3  0  0  0  0  0  0
    1.8040    1.8840    0.2488 C   0  0  0  1  0  3  0  0  0  0  0  0
    2.2798    0.5039    0.4280 C   0  0  0  1  0  3  0  0  0  0  0  0
    2.5451    3.0223    0.1244 C   0  0  0  1  0  3  0  0  0  0  0  0
    3.9522    2.9525    0.1428 C   0  0  0  1  0  3  0  0  0  0  0  0
    4.6453    3.5243    1.1559 C   0  0  0  1  0  3  0  0  0  0  0  0
    3.9316    4.0618    2.3233 C   0  0  0  1  0  3  0  0  0  0  0  0
    4.6859    2.2414   -0.9650 C   0  0  0  1  0  4  0  0  0  0  0  0
    2.7426    3.4648    2.7572 C   0  0  0  1  0  3  0  0  0  0  0  0
    4.4405    5.1698    3.0102 C   0  0  0  1  0  3  0  0  0  0  0  0
    2.0794    3.9751    3.8528 C   0  0  0  1  0  3  0  0  0  0  0  0
    3.7651    5.6677    4.1040 C   0  0  0  1  0  3  0  0  0  0  0  0
    2.5863    5.0751    4.5230 C   0  0  0  1  0  3  0  0  0  0  0  0
   -2.3631    0.7496    0.4766 H   0  0  0  1  0  1  0  0  0  0  0  0
   -2.8453   -0.6601   -0.5021 H   0  0  0  1  0  1  0  0  0  0  0  0
   -1.1562   -2.8436   -0.1992 H   0  0  0  1  0  1  0  0  0  0  0  0
    0.1877   -2.5479    0.9339 H   0  0  0  1  0  1  0  0  0  0  0  0
   -4.2505   -0.6122    1.4916 H   0  0  0  1  0  1  0  0  0  0  0  0
   -2.8232   -0.4546    2.5449 H   0  0  0  1  0  1  0  0  0  0  0  0
   -1.3580   -2.3486    2.8076 H   0  0  0  1  0  1  0  0  0  0  0  0
   -1.7404   -3.8571    1.9416 H   0  0  0  1  0  1  0  0  0  0  0  0
    2.0532    3.9772    0.0118 H   0  0  0  1  0  1  0  0  0  0  0  0
    5.7224    3.5855    1.1062 H   0  0  0  1  0  1  0  0  0  0  0  0
    4.8630    2.9349   -1.7871 H   0  0  0  1  0  1  0  0  0  0  0  0
    5.6400    1.8714   -0.5898 H   0  0  0  1  0  1  0  0  0  0  0  0
    4.0852    1.4037   -1.3193 H   0  0  0  1  0  1  0  0  0  0  0  0
    2.3454    2.6070    2.2349 H   0  0  0  1  0  1  0  0  0  0  0  0
    5.3601    5.6332    2.6846 H   0  0  0  1  0  1  0  0  0  0  0  0
    1.1617    3.5156    4.1889 H   0  0  0  1  0  1  0  0  0  0  0  0
    4.1567    6.5224    4.6355 H   0  0  0  1  0  1  0  0  0  0  0  0
    2.0618    5.4702    5.3804 H   0  0  0  1  0  1  0  0  0  0  0  0
  1 10  1  0  0  0  0
  1 11  1  0  0  0  0
  2  8  1  0  0  0  0
  2  9  1  0  0  0  0
  3 12  2  0  0  0  0
  4  6  1  0  0  0  0
  4  7  1  0  0  0  0
  4 10  1  0  0  0  0
  5 10  2  0  0  0  0
  5 12  1  0  0  0  0
  6  8  1  0  0  0  0
  6 25  1  0  0  0  0
  6 26  1  0  0  0  0
  7  9  1  0  0  0  0
  7 23  1  0  0  0  0
  7 24  1  0  0  0  0
  8 29  1  0  0  0  0
  8 30  1  0  0  0  0
  9 27  1  0  0  0  0
  9 28  1  0  0  0  0
 11 12  1  0  0  0  0
 11 13  2  0  0  0  0
 13 14  1  0  0  0  0
 13 31  1  0  0  0  0
 14 15  2  0  0  0  0
 14 17  1  0  0  0  0
 15 16  1  0  0  0  0
 15 32  1  0  0  0  0
 16 18  2  0  0  0  0
 16 19  1  0  0  0  0
 17 33  1  0  0  0  0
 17 34  1  0  0  0  0
 17 35  1  0  0  0  0
 18 20  1  0  0  0  0
 18 36  1  0  0  0  0
 19 21  2  0  0  0  0
 19 37  1  0  0  0  0
 20 22  2  0  0  0  0
 20 38  1  0  0  0  0
 21 22  1  0  0  0  0
 21 39  1  0  0  0  0
 22 40  1  0  0  0  0
M  END
> <Activity>
0.50997

> <Mapped(file=504701.csv.activities,property=Cached(PUBCHEM_COMPOUND_CID))>
0.50997

> <PUBCHEM_ATOM_DEF_STEREO_COUNT>
0

> <PUBCHEM_ATOM_UDEF_STEREO_COUNT>
0

> <PUBCHEM_BONDANNOTATIONS>
16  18  8
16  19  8
18  20  8
19  21  8
20  22  8
21  22  8

> <PUBCHEM_BOND_DEF_STEREO_COUNT>
2

> <PUBCHEM_BOND_UDEF_STEREO_COUNT>
0

> <PUBCHEM_CACTVS_COMPLEXITY>
513

> <PUBCHEM_CACTVS_HBOND_ACCEPTOR>
3

> <PUBCHEM_CACTVS_HBOND_DONOR>
0

> <PUBCHEM_CACTVS_ROTATABLE_BOND>
3

> <PUBCHEM_CACTVS_SUBSKEYS>
AAADceB7MABAAAAAAAAAAAAAAAAAAQAAAAA8QAAAAAAAAAABAAAAHgQAAAAADADh2AYzAIMABAioAiFSNACCEAFgABAJiAAIAMgKICKAGRCDIAAggACYiYcAgAAOAAAAAAAAAAAAAAAAAAAAAAAAAAAAAA==

> <PUBCHEM_CACTVS_TAUTO_COUNT>
1

> <PUBCHEM_CACTVS_TPSA>
67.2

> <PUBCHEM_COMPONENT_COUNT>
1

> <PUBCHEM_COMPOUND_CANONICALIZED>
1

> <PUBCHEM_COMPOUND_CID>
682575

> <PUBCHEM_COORDINATE_TYPE>
1
5
255

> <PUBCHEM_EXACT_MASS>
314.108899

> <PUBCHEM_HEAVY_ATOM_COUNT>
22

> <PUBCHEM_ISOTOPIC_ATOM_COUNT>
0

> <PUBCHEM_IUPAC_CAS_NAME>
(5E)-5-[(Z)-2-methyl-3-phenylprop-2-enylidene]-2-(4-morpholinyl)-4-thiazolone

> <PUBCHEM_IUPAC_INCHI>
InChI=1S/C17H18N2O2S/c1-13(11-14-5-3-2-4-6-14)12-15-16(20)18-17(22-15)19-7-9-21-10-8-19/h2-6,11-12H,7-10H2,1H3/b13-11-,15-12+

> <PUBCHEM_IUPAC_INCHIKEY>
OXILYMAORVXQHT-OWTZWGKBSA-N

> <PUBCHEM_IUPAC_NAME>
(5E)-5-[(Z)-2-methyl-3-phenylprop-2-enylidene]-2-morpholin-4-yl-1,3-thiazol-4-one

> <PUBCHEM_IUPAC_OPENEYE_NAME>
(5E)-5-[(Z)-2-methyl-3-phenyl-prop-2-enylidene]-2-morpholino-thiazol-4-one

> <PUBCHEM_IUPAC_SYSTEMATIC_NAME>
(5E)-5-[(Z)-2-methyl-3-phenyl-prop-2-enylidene]-2-morpholin-4-yl-1,3-thiazol-4-one

> <PUBCHEM_IUPAC_TRADITIONAL_NAME>
(5E)-5-[(Z)-2-methyl-3-phenyl-prop-2-enylidene]-2-morpholino-2-thiazolin-4-one

> <PUBCHEM_MOLECULAR_FORMULA>
C17H18N2O2S

> <PUBCHEM_MOLECULAR_WEIGHT>
314.40202

> <PUBCHEM_MONOISOTOPIC_WEIGHT>
314.108899

> <PUBCHEM_OPENEYE_CAN_SMILES>
CC(=CC1=CC=CC=C1)C=C2C(=O)N=C(S2)N3CCOCC3

> <PUBCHEM_OPENEYE_ISO_SMILES>
C/C(=C/C1=CC=CC=C1)/C=C/2\C(=O)N=C(S2)N3CCOCC3

> <PUBCHEM_TOTAL_CHARGE>
0

> <PUBCHEM_XLOGP3_AA>
3.3

$$$$
Written by BCL::WriteToMDL,6891772
MBcorina  10171218483D 1   1.00000     0.00000 
CORINA 3.49 0026  01.06.2011
 51 56  0  0  0  0  0  0  0  0999 V2000
   -0.9290    1.6340    2.4779 S   0  0  0  1  0  1  0  0  0  0  0  0
   -0.0175    1.3901   -0.0872 N   0  0  0  1  0  3  0  0  0  0  0  0
   -0.0087   -0.0109   -0.0937 N   0  0  0  1  0  2  0  0  0  0  0  0
    1.0513    0.4601   -2.8357 N   0  0  0  1  0  3  0  0  0  0  0  0
    0.2091    3.4510   -0.7673 N   0  0  0  1  0  2  0  0  0  0  0  0
    1.4773    0.4667   -4.1699 N   0  0  0  1  0  2  0  0  0  0  0  0
   -0.2560    3.4569    0.5548 N   0  0  0  1  0  3  0  0  0  0  0  0
   -1.0860   -2.1313    0.2134 C   0  0  0  1  0  3  0  0  0  0  0  0
   -2.2882   -2.8621    0.3119 C   0  0  0  1  0  3  0  0  0  0  0  0
    0.1425   -2.8240    0.2097 C   0  0  0  1  0  3  0  0  0  0  0  0
   -2.2529   -4.3229    0.4089 C   0  0  0  1  0  3  0  0  0  0  0  0
    0.1613   -4.2850    0.3073 C   0  0  0  1  0  3  0  0  0  0  0  0
   -1.0330   -5.0003    0.4045 C   0  0  0  1  0  3  0  0  0  0  0  0
   -3.5342   -2.2119    0.3196 C   0  0  0  1  0  3  0  0  0  0  0  0
    1.3638   -2.1351    0.1137 C   0  0  0  1  0  3  0  0  0  0  0  0
   -3.4732   -5.0252    0.5067 C   0  0  0  1  0  3  0  0  0  0  0  0
    1.4068   -4.9487    0.3015 C   0  0  0  1  0  3  0  0  0  0  0  0
   -1.1132   -0.6700    0.1099 C   0  0  0  1  0  3  0  0  0  0  0  0
   -4.6749   -2.9463    0.4163 C   0  0  0  1  0  3  0  0  0  0  0  0
    2.5311   -2.8333    0.1133 C   0  0  0  1  0  3  0  0  0  0  0  0
    0.3464    2.2076   -1.1416 C   0  0  0  1  0  3  0  0  0  0  0  0
   -4.6442   -4.3365    0.5087 C   0  0  0  1  0  3  0  0  0  0  0  0
    2.5517   -4.2237    0.2061 C   0  0  0  1  0  3  0  0  0  0  0  0
    0.8117    1.7520   -2.4649 C   0  0  0  1  0  3  0  0  0  0  0  0
    1.4966    1.7128   -4.5954 C   0  0  0  1  0  3  0  0  0  0  0  0
    1.0823    2.5458   -3.5436 C   0  0  0  1  0  3  0  0  0  0  0  0
    1.8894    2.1605   -5.9550 C   0  0  0  1  0  3  0  0  0  0  0  0
   -0.3878    2.1728    0.9457 C   0  0  0  1  0  3  0  0  0  0  0  0
    2.2823    1.2274   -6.9120 C   0  0  0  1  0  3  0  0  0  0  0  0
    1.8611    3.5148   -6.2804 C   0  0  0  1  0  3  0  0  0  0  0  0
    2.6466    1.6492   -8.1747 C   0  0  0  1  0  3  0  0  0  0  0  0
    2.2274    3.9257   -7.5462 C   0  0  0  1  0  3  0  0  0  0  0  0
    2.6225    2.9956   -8.4906 C   0  0  0  1  0  3  0  0  0  0  0  0
   -1.0130   -6.0777    0.4762 H   0  0  0  1  0  1  0  0  0  0  0  0
   -3.5855   -1.1354    0.2496 H   0  0  0  1  0  1  0  0  0  0  0  0
    1.3754   -1.0576    0.0403 H   0  0  0  1  0  1  0  0  0  0  0  0
   -3.4760   -6.1028    0.5790 H   0  0  0  1  0  1  0  0  0  0  0  0
    1.4495   -6.0255    0.3726 H   0  0  0  1  0  1  0  0  0  0  0  0
   -2.0494   -0.1394    0.2026 H   0  0  0  1  0  1  0  0  0  0  0  0
   -5.6285   -2.4393    0.4220 H   0  0  0  1  0  1  0  0  0  0  0  0
    3.4655   -2.2967    0.0392 H   0  0  0  1  0  1  0  0  0  0  0  0
   -5.5745   -4.8799    0.5838 H   0  0  0  1  0  1  0  0  0  0  0  0
    3.5016   -4.7376    0.2025 H   0  0  0  1  0  1  0  0  0  0  0  0
    0.9934    3.6215   -3.5806 H   0  0  0  1  0  1  0  0  0  0  0  0
    0.9418   -0.3241   -2.2755 H   0  0  0  1  0  1  0  0  0  0  0  0
   -0.4482    4.2419    1.0913 H   0  0  0  1  0  1  0  0  0  0  0  0
    2.3021    0.1759   -6.6662 H   0  0  0  1  0  1  0  0  0  0  0  0
    1.5527    4.2419   -5.5438 H   0  0  0  1  0  1  0  0  0  0  0  0
    2.9513    0.9266   -8.9174 H   0  0  0  1  0  1  0  0  0  0  0  0
    2.2058    4.9753   -7.7995 H   0  0  0  1  0  1  0  0  0  0  0  0
    2.9087    3.3214   -9.4797 H   0  0  0  1  0  1  0  0  0  0  0  0
  1 28  2  0  0  0  0
  2  3  1  0  0  0  0
  2 21  1  0  0  0  0
  2 28  1  0  0  0  0
  3 18  2  0  0  0  0
  4  6  1  0  0  0  0
  4 24  1  0  0  0  0
  4 45  1  0  0  0  0
  5  7  1  0  0  0  0
  5 21  2  0  0  0  0
  6 25  2  0  0  0  0
  7 28  1  0  0  0  0
  7 46  1  0  0  0  0
  8  9  2  0  0  0  0
  8 10  1  0  0  0  0
  8 18  1  0  0  0  0
  9 11  1  0  0  0  0
  9 14  1  0  0  0  0
 10 12  1  0  0  0  0
 10 15  2  0  0  0  0
 11 13  2  0  0  0  0
 11 16  1  0  0  0  0
 12 13  1  0  0  0  0
 12 17  2  0  0  0  0
 13 34  1  0  0  0  0
 14 19  2  0  0  0  0
 14 35  1  0  0  0  0
 15 20  1  0  0  0  0
 15 36  1  0  0  0  0
 16 22  2  0  0  0  0
 16 37  1  0  0  0  0
 17 23  1  0  0  0  0
 17 38  1  0  0  0  0
 18 39  1  0  0  0  0
 19 22  1  0  0  0  0
 19 40  1  0  0  0  0
 20 23  2  0  0  0  0
 20 41  1  0  0  0  0
 21 24  1  0  0  0  0
 22 42  1  0  0  0  0
 23 43  1  0  0  0  0
 24 26  2  0  0  0  0
 25 26  1  0  0  0  0
 25 27  1  0  0  0  0
 26 44  1  0  0  0  0
 27 29  2  0  0  0  0
 27 30  1  0  0  0  0
 29 31  1  0  0  0  0
 29 47  1  0  0  0  0
 30 32  2  0  0  0  0
 30 48  1  0  0  0  0
 31 33  2  0  0  0  0
 31 49  1  0  0  0  0
 32 33  1  0  0  0  0
 32 50  1  0  0  0  0
 33 51  1  0  0  0  0
M  END
> <Activity>
0.58502

> <Mapped(file=504701.csv.activities,property=Cached(PUBCHEM_COMPOUND_CID))>
0.58502

> <PUBCHEM_ATOM_DEF_STEREO_COUNT>
0

> <PUBCHEM_ATOM_UDEF_STEREO_COUNT>
0

> <PUBCHEM_BONDANNOTATIONS>
10  12  8
10  15  8
11  13  8
11  16  8
12  13  8
12  17  8
14  19  8
15  20  8
16  22  8
17  23  8
19  22  8
2  21  8
2  28  8
20  23  8
24  26  8
25  26  8
27  29  8
27  30  8
29  31  8
30  32  8
31  33  8
32  33  8
4  24  8
4  6  8
5  21  8
5  7  8
6  25  8
7  28  8
8  10  8
8  9  8
9  11  8
9  14  8

> <PUBCHEM_BOND_DEF_STEREO_COUNT>
1

> <PUBCHEM_BOND_UDEF_STEREO_COUNT>
0

> <PUBCHEM_CACTVS_COMPLEXITY>
755

> <PUBCHEM_CACTVS_HBOND_ACCEPTOR>
4

> <PUBCHEM_CACTVS_HBOND_DONOR>
2

> <PUBCHEM_CACTVS_ROTATABLE_BOND>
4

> <PUBCHEM_CACTVS_SUBSKEYS>
AAADceB7gABAAAAAAAAAAAAAAAAAAWIAAAAwYMGAAAAAAADB1AAAHAQYAAAADAjBHgQxgNJjAACmAzZjYACSBAAgAgkduSAwZJiIYKKA0dGUpAhwmAIIyAcQgMAOwAACAAAQAACAAAQAACAAAAAAAAAAAA==

> <PUBCHEM_CACTVS_TAUTO_COUNT>
9

> <PUBCHEM_CACTVS_TPSA>
101

> <PUBCHEM_COMPONENT_COUNT>
1

> <PUBCHEM_COMPOUND_CANONICALIZED>
1

> <PUBCHEM_COMPOUND_CID>
6891772

> <PUBCHEM_COORDINATE_TYPE>
1
5
255

> <PUBCHEM_EXACT_MASS>
446.131366

> <PUBCHEM_HEAVY_ATOM_COUNT>
33

> <PUBCHEM_ISOTOPIC_ATOM_COUNT>
0

> <PUBCHEM_IUPAC_CAS_NAME>
4-[(E)-9-anthracenylmethylideneamino]-3-(3-phenyl-1H-pyrazol-5-yl)-1H-1,2,4-triazole-5-thione

> <PUBCHEM_IUPAC_INCHI>
InChI=1S/C26H18N6S/c33-26-31-30-25(24-15-23(28-29-24)17-8-2-1-3-9-17)32(26)27-16-22-20-12-6-4-10-18(20)14-19-11-5-7-13-21(19)22/h1-16H,(H,28,29)(H,31,33)/b27-16+

> <PUBCHEM_IUPAC_INCHIKEY>
WCLOWKRTLPNLSV-JVWAILMASA-N

> <PUBCHEM_IUPAC_NAME>
4-[(E)-anthracen-9-ylmethylideneamino]-3-(3-phenyl-1H-pyrazol-5-yl)-1H-1,2,4-triazole-5-thione

> <PUBCHEM_IUPAC_OPENEYE_NAME>
4-[(E)-9-anthrylmethyleneamino]-3-(3-phenyl-1H-pyrazol-5-yl)-1H-1,2,4-triazole-5-thione

> <PUBCHEM_IUPAC_SYSTEMATIC_NAME>
4-[(E)-anthracen-9-ylmethylideneamino]-3-(3-phenyl-1H-pyrazol-5-yl)-1H-1,2,4-triazole-5-thione

> <PUBCHEM_IUPAC_TRADITIONAL_NAME>
4-[(E)-9-anthrylmethyleneamino]-3-(3-phenyl-1H-pyrazol-5-yl)-1H-1,2,4-triazole-5-thione

> <PUBCHEM_MOLECULAR_FORMULA>
C26H18N6S

> <PUBCHEM_MOLECULAR_WEIGHT>
446.52632

> <PUBCHEM_MONOISOTOPIC_WEIGHT>
446.131366

> <PUBCHEM_OPENEYE_CAN_SMILES>
C1=CC=C(C=C1)C2=NNC(=C2)C3=NNC(=S)N3N=CC4=C5C=CC=CC5=CC6=CC=CC=C64

> <PUBCHEM_OPENEYE_ISO_SMILES>
C1=CC=C(C=C1)C2=NNC(=C2)C3=NNC(=S)N3/N=C/C4=C5C=CC=CC5=CC6=CC=CC=C64

> <PUBCHEM_TOTAL_CHARGE>
0

> <PUBCHEM_XLOGP3_AA>
6.1

$$$$
Written by BCL::WriteToMDL,2549470
MBcorina  10171218483D 1   1.00000     0.00000 
CORINA 3.49 0026  01.06.2011
 37 40  0  0  0  0  0  0  0  0999 V2000
   -0.0219    1.7667    0.0118 S   0  0  0  1  0  2  0  0  0  0  0  0
   -2.6399   -3.0407    1.2498 O   0  0  0  1  0  2  0  0  0  0  0  0
    2.7382   -2.1062   -0.0353 O   0  0  0  1  0  1  0  0  0  0  0  0
   -4.0144   -4.6324    0.5401 O   0  0  0  1  0  1  0  0  0  0  0  0
   -7.4160   -5.3584    4.1766 O   0  0  0  1  0  2  0  0  0  0  0  0
    1.3057   -0.3798   -0.0124 N   0  0  0  1  0  3  0  0  0  0  0  0
   -0.9880   -0.8792    0.0064 N   0  0  0  1  0  2  0  0  0  0  0  0
    2.2534    0.6459   -0.0160 C   0  0  0  1  0  3  0  0  0  0  0  0
    0.0021   -0.0041    0.0020 C   0  0  0  1  0  3  0  0  0  0  0  0
    1.7371    1.9376   -0.0041 C   0  0  0  1  0  3  0  0  0  0  0  0
    1.5811   -1.7182   -0.0218 C   0  0  0  1  0  3  0  0  0  0  0  0
   -0.7584   -2.1873   -0.0032 C   0  0  0  1  0  3  0  0  0  0  0  0
    3.6500    0.5018   -0.0306 C   0  0  0  1  0  3  0  0  0  0  0  0
    0.5311   -2.6407   -0.0163 C   0  0  0  1  0  3  0  0  0  0  0  0
    2.5643    3.0492   -0.0056 C   0  0  0  1  0  3  0  0  0  0  0  0
   -1.9079   -3.1619    0.0017 C   0  0  0  1  0  4  0  0  0  0  0  0
    4.4684    1.6068   -0.0312 C   0  0  0  1  0  3  0  0  0  0  0  0
    3.9354    2.8847   -0.0192 C   0  0  0  1  0  3  0  0  0  0  0  0
   -4.4978   -3.7806    2.6599 C   0  0  0  1  0  3  0  0  0  0  0  0
   -3.7053   -3.8484    1.4149 C   0  0  0  1  0  3  0  0  0  0  0  0
   -5.6019   -4.6160    2.8336 C   0  0  0  1  0  3  0  0  0  0  0  0
   -4.1413   -2.8841    3.6697 C   0  0  0  1  0  3  0  0  0  0  0  0
   -6.3399   -4.5466    4.0033 C   0  0  0  1  0  3  0  0  0  0  0  0
   -4.8837   -2.8236    4.8308 C   0  0  0  1  0  3  0  0  0  0  0  0
   -5.9814   -3.6479    4.9988 C   0  0  0  1  0  3  0  0  0  0  0  0
    4.0857   -0.4863   -0.0401 H   0  0  0  1  0  1  0  0  0  0  0  0
    0.7364   -3.7010   -0.0240 H   0  0  0  1  0  1  0  0  0  0  0  0
    2.1380    4.0415    0.0034 H   0  0  0  1  0  1  0  0  0  0  0  0
   -1.5239   -4.1772   -0.0972 H   0  0  0  1  0  1  0  0  0  0  0  0
   -2.5739   -2.9424   -0.8328 H   0  0  0  1  0  1  0  0  0  0  0  0
    5.5404    1.4764   -0.0422 H   0  0  0  1  0  1  0  0  0  0  0  0
    4.5868    3.7461   -0.0209 H   0  0  0  1  0  1  0  0  0  0  0  0
   -5.8802   -5.3142    2.0581 H   0  0  0  1  0  1  0  0  0  0  0  0
   -3.2847   -2.2389    3.5418 H   0  0  0  1  0  1  0  0  0  0  0  0
   -4.6068   -2.1302    5.6112 H   0  0  0  1  0  1  0  0  0  0  0  0
   -6.5590   -3.5957    5.9098 H   0  0  0  1  0  1  0  0  0  0  0  0
   -7.2063   -6.2062    4.5919 H   0  0  0  1  0  1  0  0  0  0  0  0
  1  9  1  0  0  0  0
  1 10  1  0  0  0  0
  2 16  1  0  0  0  0
  2 20  1  0  0  0  0
  3 11  2  0  0  0  0
  4 20  2  0  0  0  0
  5 23  1  0  0  0  0
  5 37  1  0  0  0  0
  6  8  1  0  0  0  0
  6  9  1  0  0  0  0
  6 11  1  0  0  0  0
  7  9  2  0  0  0  0
  7 12  1  0  0  0  0
  8 10  1  0  0  0  0
  8 13  2  0  0  0  0
 10 15  2  0  0  0  0
 11 14  1  0  0  0  0
 12 14  2  0  0  0  0
 12 16  1  0  0  0  0
 13 17  1  0  0  0  0
 13 26  1  0  0  0  0
 14 27  1  0  0  0  0
 15 18  1  0  0  0  0
 15 28  1  0  0  0  0
 16 29  1  0  0  0  0
 16 30  1  0  0  0  0
 17 18  2  0  0  0  0
 17 31  1  0  0  0  0
 18 32  1  0  0  0  0
 19 20  1  0  0  0  0
 19 21  2  0  0  0  0
 19 22  1  0  0  0  0
 21 23  1  0  0  0  0
 21 33  1  0  0  0  0
 22 24  2  0  0  0  0
 22 34  1  0  0  0  0
 23 25  2  0  0  0  0
 24 25  1  0  0  0  0
 24 35  1  0  0  0  0
 25 36  1  0  0  0  0
M  END
> <Activity>
5.459

> <Mapped(file=504701.csv.activities,property=Cached(PUBCHEM_COMPOUND_CID))>
5.459

> <PUBCHEM_ATOM_DEF_STEREO_COUNT>
0

> <PUBCHEM_ATOM_UDEF_STEREO_COUNT>
0

> <PUBCHEM_BONDANNOTATIONS>
1  10  8
1  9  8
10  15  8
11  14  8
12  14  8
13  17  8
15  18  8
17  18  8
19  21  8
19  22  8
21  23  8
22  24  8
23  25  8
24  25  8
6  11  8
6  8  8
6  9  8
7  12  8
7  9  8
8  10  8
8  13  8

> <PUBCHEM_BOND_DEF_STEREO_COUNT>
0

> <PUBCHEM_BOND_UDEF_STEREO_COUNT>
0

> <PUBCHEM_CACTVS_COMPLEXITY>
633

> <PUBCHEM_CACTVS_HBOND_ACCEPTOR>
6

> <PUBCHEM_CACTVS_HBOND_DONOR>
1

> <PUBCHEM_CACTVS_ROTATABLE_BOND>
4

> <PUBCHEM_CACTVS_SUBSKEYS>
AAADccB7OABAAAAAAAAAAAAAAAAAAWAAAAAwYIAAAAAAAFgBQAAAHgQACAAADAyh2AIxz4MABgioAiXSfACCEAFlKhAJiB0GbMgKJjLivZuHcQhkxBHI+cfayDCOAAABAAAAAQAAAAIAAAACAAAAAAAAAA==

> <PUBCHEM_CACTVS_TAUTO_COUNT>
3

> <PUBCHEM_CACTVS_TPSA>
105

> <PUBCHEM_COMPONENT_COUNT>
1

> <PUBCHEM_COMPOUND_CANONICALIZED>
1

> <PUBCHEM_COMPOUND_CID>
2549470

> <PUBCHEM_COORDINATE_TYPE>
1
5
255

> <PUBCHEM_EXACT_MASS>
352.051778

> <PUBCHEM_HEAVY_ATOM_COUNT>
25

> <PUBCHEM_ISOTOPIC_ATOM_COUNT>
0

> <PUBCHEM_IUPAC_CAS_NAME>
3-hydroxybenzoic acid (4-oxo-2-pyrimido[2,1-b][1,3]benzothiazolyl)methyl ester

> <PUBCHEM_IUPAC_INCHI>
InChI=1S/C18H12N2O4S/c21-13-5-3-4-11(8-13)17(23)24-10-12-9-16(22)20-14-6-1-2-7-15(14)25-18(20)19-12/h1-9,21H,10H2

> <PUBCHEM_IUPAC_INCHIKEY>
XPXALAIYTFJSFZ-UHFFFAOYSA-N

> <PUBCHEM_IUPAC_NAME>
(4-oxopyrimido[2,1-b][1,3]benzothiazol-2-yl)methyl 3-hydroxybenzoate

> <PUBCHEM_IUPAC_OPENEYE_NAME>
(4-oxopyrimido[2,1-b][1,3]benzothiazol-2-yl)methyl 3-hydroxybenzoate

> <PUBCHEM_IUPAC_SYSTEMATIC_NAME>
(4-oxidanylidenepyrimido[2,1-b][1,3]benzothiazol-2-yl)methyl 3-oxidanylbenzoate

> <PUBCHEM_IUPAC_TRADITIONAL_NAME>
3-hydroxybenzoic acid (4-ketopyrimido[2,1-b][1,3]benzothiazol-2-yl)methyl ester

> <PUBCHEM_MOLECULAR_FORMULA>
C18H12N2O4S

> <PUBCHEM_MOLECULAR_WEIGHT>
352.36388

> <PUBCHEM_MONOISOTOPIC_WEIGHT>
352.051778

> <PUBCHEM_OPENEYE_CAN_SMILES>
C1=CC=C2C(=C1)N3C(=O)C=C(N=C3S2)COC(=O)C4=CC(=CC=C4)O

> <PUBCHEM_OPENEYE_ISO_SMILES>
C1=CC=C2C(=C1)N3C(=O)C=C(N=C3S2)COC(=O)C4=CC(=CC=C4)O

> <PUBCHEM_TOTAL_CHARGE>
0

> <PUBCHEM_XLOGP3_AA>
2.6

$$$$
Written by BCL::WriteToMDL,5853451
MBcorina  10171218483D 1   1.00000     0.00000 
CORINA 3.49 0026  01.06.2011
 46 49  0  0  0  0  0  0  0  0999 V2000
   -3.9458    2.7792   -2.3669 Cl  0  0  0  1  0  1  0  0  0  0  0  0
   -0.1868    1.7025   -0.2135 S   0  0  0  1  0  4  0  0  0  0  0  0
   -0.1883    0.2827   -0.2720 O   0  0  0  1  0  1  0  0  0  0  0  0
    0.9980    2.4826   -0.2977 O   0  0  0  1  0  1  0  0  0  0  0  0
   -3.6165   -0.4141    3.2627 O   0  0  0  1  0  1  0  0  0  0  0  0
   -7.0261   -1.3764    7.0781 O   0  0  0  1  0  1  0  0  0  0  0  0
   -1.1765    2.2220   -1.4353 N   0  0  0  1  0  3  0  0  0  0  0  0
   -4.8576    0.1110    5.5571 N   0  0  0  1  0  3  0  0  0  0  0  0
   -3.9721    1.0017    4.9363 N   0  0  0  1  0  3  0  0  0  0  0  0
   -6.9699    0.4491    8.4168 N   0  0  0  1  0  2  0  0  0  0  0  0
   -0.9626    2.1387    1.3072 C   0  0  0  1  0  3  0  0  0  0  0  0
   -2.4468    1.6036    3.1181 C   0  0  0  1  0  3  0  0  0  0  0  0
   -5.3612    1.6840    7.3908 C   0  0  0  1  0  3  0  0  0  0  0  0
   -1.8332    1.2566    1.9137 C   0  0  0  1  0  3  0  0  0  0  0  0
   -5.5175    0.4832    6.6566 C   0  0  0  1  0  3  0  0  0  0  0  0
   -0.6930    3.3623    1.8935 C   0  0  0  1  0  3  0  0  0  0  0  0
   -6.2784    1.6233    8.4722 C   0  0  0  1  0  3  0  0  0  0  0  0
   -2.1747    2.8423    3.7015 C   0  0  0  1  0  3  0  0  0  0  0  0
   -1.4829    3.5801   -1.5567 C   0  0  0  1  0  3  0  0  0  0  0  0
   -1.2981    3.7126    3.0877 C   0  0  0  1  0  3  0  0  0  0  0  0
   -3.3812    0.6636    3.7732 C   0  0  0  1  0  3  0  0  0  0  0  0
   -4.5331    2.8020    7.2349 C   0  0  0  1  0  3  0  0  0  0  0  0
   -6.5893   -0.2819    7.3846 C   0  0  0  1  0  3  0  0  0  0  0  0
   -6.3368    2.6894    9.3655 C   0  0  0  1  0  3  0  0  0  0  0  0
   -4.6144    3.8447    8.1370 C   0  0  0  1  0  3  0  0  0  0  0  0
   -2.7463    3.9739   -1.9832 C   0  0  0  1  0  3  0  0  0  0  0  0
   -0.5283    4.5393   -1.2463 C   0  0  0  1  0  3  0  0  0  0  0  0
   -5.5092    3.7874    9.1935 C   0  0  0  1  0  3  0  0  0  0  0  0
   -3.0455    5.3176   -2.1015 C   0  0  0  1  0  3  0  0  0  0  0  0
   -0.8345    5.8811   -1.3669 C   0  0  0  1  0  3  0  0  0  0  0  0
   -2.0898    6.2698   -1.7967 C   0  0  0  1  0  3  0  0  0  0  0  0
   -2.0397    0.2999    1.4570 H   0  0  0  1  0  1  0  0  0  0  0  0
   -1.5436    1.5837   -2.0667 H   0  0  0  1  0  1  0  0  0  0  0  0
   -0.0071    4.0472    1.4172 H   0  0  0  1  0  1  0  0  0  0  0  0
   -2.6466    3.1170    4.6333 H   0  0  0  1  0  1  0  0  0  0  0  0
   -1.0831    4.6693    3.5404 H   0  0  0  1  0  1  0  0  0  0  0  0
   -4.9913   -0.7761    5.1881 H   0  0  0  1  0  1  0  0  0  0  0  0
   -3.8345    2.8493    6.4126 H   0  0  0  1  0  1  0  0  0  0  0  0
   -3.7844    1.8618    5.3437 H   0  0  0  1  0  1  0  0  0  0  0  0
   -7.0289    2.6609   10.1942 H   0  0  0  1  0  1  0  0  0  0  0  0
   -3.9768    4.7083    8.0190 H   0  0  0  1  0  1  0  0  0  0  0  0
    0.4525    4.2368   -0.9105 H   0  0  0  1  0  1  0  0  0  0  0  0
   -5.5623    4.6093    9.8920 H   0  0  0  1  0  1  0  0  0  0  0  0
   -4.0266    5.6247   -2.4326 H   0  0  0  1  0  1  0  0  0  0  0  0
   -0.0923    6.6274   -1.1252 H   0  0  0  1  0  1  0  0  0  0  0  0
   -2.3259    7.3195   -1.8906 H   0  0  0  1  0  1  0  0  0  0  0  0
  1 26  1  0  0  0  0
  2  3  2  0  0  0  0
  2  4  2  0  0  0  0
  2  7  1  0  0  0  0
  2 11  1  0  0  0  0
  5 21  2  0  0  0  0
  6 23  2  0  0  0  0
  7 19  1  0  0  0  0
  7 33  1  0  0  0  0
  8  9  1  0  0  0  0
  8 15  1  0  0  0  0
  8 37  1  0  0  0  0
  9 21  1  0  0  0  0
  9 39  1  0  0  0  0
 10 17  2  0  0  0  0
 10 23  1  0  0  0  0
 11 14  1  0  0  0  0
 11 16  2  0  0  0  0
 12 14  2  0  0  0  0
 12 18  1  0  0  0  0
 12 21  1  0  0  0  0
 13 15  2  0  0  0  0
 13 17  1  0  0  0  0
 13 22  1  0  0  0  0
 14 32  1  0  0  0  0
 15 23  1  0  0  0  0
 16 20  1  0  0  0  0
 16 34  1  0  0  0  0
 17 24  1  0  0  0  0
 18 20  2  0  0  0  0
 18 35  1  0  0  0  0
 19 26  1  0  0  0  0
 19 27  2  0  0  0  0
 20 36  1  0  0  0  0
 22 25  2  0  0  0  0
 22 38  1  0  0  0  0
 24 28  2  0  0  0  0
 24 40  1  0  0  0  0
 25 28  1  0  0  0  0
 25 41  1  0  0  0  0
 26 29  2  0  0  0  0
 27 30  1  0  0  0  0
 27 42  1  0  0  0  0
 28 43  1  0  0  0  0
 29 31  1  0  0  0  0
 29 44  1  0  0  0  0
 30 31  2  0  0  0  0
 30 45  1  0  0  0  0
 31 46  1  0  0  0  0
M  END
> <Activity>
1.012

> <Mapped(file=504701.csv.activities,property=Cached(PUBCHEM_COMPOUND_CID))>
1.012

> <PUBCHEM_ATOM_DEF_STEREO_COUNT>
0

> <PUBCHEM_ATOM_UDEF_STEREO_COUNT>
0

> <PUBCHEM_BONDANNOTATIONS>
11  14  8
11  16  8
12  14  8
12  18  8
13  17  8
13  22  8
16  20  8
17  24  8
18  20  8
19  26  8
19  27  8
22  25  8
24  28  8
25  28  8
26  29  8
27  30  8
29  31  8
30  31  8

> <PUBCHEM_BOND_DEF_STEREO_COUNT>
0

> <PUBCHEM_BOND_UDEF_STEREO_COUNT>
0

> <PUBCHEM_CACTVS_COMPLEXITY>
980

> <PUBCHEM_CACTVS_HBOND_ACCEPTOR>
6

> <PUBCHEM_CACTVS_HBOND_DONOR>
3

> <PUBCHEM_CACTVS_ROTATABLE_BOND>
6

> <PUBCHEM_CACTVS_SUBSKEYS>
AAADccB7uABEAAAAAAAAAAAAAAAAAQAAAAAwYIAAAAAAAEABQAAAHgYYQAAADAqB2CAwwYJiAAKoAyVyVHDCABAkBwIaqBmwZtgIYDKBl5GAIQBgkAAIyYcYiACOAAAAgAAAABAAAAEAAAAAIAAAAAAAAA==

> <PUBCHEM_CACTVS_TAUTO_COUNT>
15

> <PUBCHEM_CACTVS_TPSA>
125

> <PUBCHEM_COMPONENT_COUNT>
1

> <PUBCHEM_COMPOUND_CANONICALIZED>
1

> <PUBCHEM_COMPOUND_CID>
5853451

> <PUBCHEM_COORDINATE_TYPE>
1
5
255

> <PUBCHEM_EXACT_MASS>
454.050254

> <PUBCHEM_HEAVY_ATOM_COUNT>
31

> <PUBCHEM_ISOTOPIC_ATOM_COUNT>
0

> <PUBCHEM_IUPAC_CAS_NAME>
N-(2-chlorophenyl)-3-[oxo-[(2-oxo-3-indolyl)hydrazo]methyl]benzenesulfonamide

> <PUBCHEM_IUPAC_INCHI>
InChI=1S/C21H15ClN4O4S/c22-16-9-2-4-11-18(16)26-31(29,30)14-7-5-6-13(12-14)20(27)25-24-19-15-8-1-3-10-17(15)23-21(19)28/h1-12,26H,(H,25,27)(H,23,24,28)

> <PUBCHEM_IUPAC_INCHIKEY>
AFPQKCVQSKKKEM-UHFFFAOYSA-N

> <PUBCHEM_IUPAC_NAME>
N-(2-chlorophenyl)-3-[[(2-oxoindol-3-yl)amino]carbamoyl]benzenesulfonamide

> <PUBCHEM_IUPAC_OPENEYE_NAME>
N-(2-chlorophenyl)-3-[[(2-oxoindol-3-yl)amino]carbamoyl]benzenesulfonamide

> <PUBCHEM_IUPAC_SYSTEMATIC_NAME>
N-(2-chlorophenyl)-3-[[(2-oxidanylideneindol-3-yl)amino]carbamoyl]benzenesulfonamide

> <PUBCHEM_IUPAC_TRADITIONAL_NAME>
N-(2-chlorophenyl)-3-[[(2-ketoindol-3-yl)amino]carbamoyl]benzenesulfonamide

> <PUBCHEM_MOLECULAR_FORMULA>
C21H15ClN4O4S

> <PUBCHEM_MOLECULAR_WEIGHT>
454.8862

> <PUBCHEM_MONOISOTOPIC_WEIGHT>
454.050254

> <PUBCHEM_OPENEYE_CAN_SMILES>
C1=CC=C(C(=C1)NS(=O)(=O)C2=CC=CC(=C2)C(=O)NNC3=C4C=CC=CC4=NC3=O)Cl

> <PUBCHEM_OPENEYE_ISO_SMILES>
C1=CC=C(C(=C1)NS(=O)(=O)C2=CC=CC(=C2)C(=O)NNC3=C4C=CC=CC4=NC3=O)Cl

> <PUBCHEM_TOTAL_CHARGE>
0

> <PUBCHEM_XLOGP3_AA>
4

$$$$
Written by BCL::WriteToMDL,797352
MBcorina  10171218483D 1   1.00000     0.00000 
CORINA 3.49 0026  01.06.2011
 33 35  0  0  0  0  0  0  0  0999 V2000
    2.0464    4.0665   -0.0800 O   0  0  0  1  0  1  0  0  0  0  0  0
   -0.1343    1.3316    0.2258 N   0  0  0  1  0  2  0  0  0  0  0  0
   -0.1707    4.1247    0.0259 N   0  0  0  1  0  3  0  0  0  0  0  0
    0.9635    6.1798   -0.0722 N   0  0  0  1  0  2  0  0  0  0  0  0
    1.0349   -0.7435    0.3176 C   0  0  0  1  0  3  0  0  0  0  0  0
   -0.1725    0.0030    0.3237 C   0  0  0  1  0  3  0  0  0  0  0  0
    1.0105    1.9783    0.1223 C   0  0  0  1  0  3  0  0  0  0  0  0
    2.2617   -0.0621    0.2070 C   0  0  0  1  0  3  0  0  0  0  0  0
    2.2381    1.2991    0.1099 C   0  0  0  1  0  3  0  0  0  0  0  0
    0.9849   -2.1425    0.4221 C   0  0  0  1  0  3  0  0  0  0  0  0
   -1.3983   -0.6807    0.4344 C   0  0  0  1  0  3  0  0  0  0  0  0
    0.9998    3.4568    0.0160 C   0  0  0  1  0  3  0  0  0  0  0  0
   -0.1778    5.5177    0.0330 C   0  0  0  1  0  3  0  0  0  0  0  0
   -0.2203   -2.7675    0.5271 C   0  0  0  1  0  3  0  0  0  0  0  0
   -1.4076   -2.0373    0.5333 C   0  0  0  1  0  3  0  0  0  0  0  0
   -0.1582    8.2398    0.0439 C   0  0  0  1  0  3  0  0  0  0  0  0
   -1.3839    6.2000    0.1502 C   0  0  0  1  0  3  0  0  0  0  0  0
   -1.3765    7.5834    0.1559 C   0  0  0  1  0  3  0  0  0  0  0  0
    1.0012    7.4986   -0.0696 C   0  0  0  1  0  3  0  0  0  0  0  0
   -0.1018    9.7458    0.0451 C   0  0  0  1  0  4  0  0  0  0  0  0
    3.1970   -0.6022    0.2000 H   0  0  0  1  0  1  0  0  0  0  0  0
    3.1619    1.8519    0.0234 H   0  0  0  1  0  1  0  0  0  0  0  0
    1.8975   -2.7201    0.4182 H   0  0  0  1  0  1  0  0  0  0  0  0
   -2.3274   -0.1302    0.4411 H   0  0  0  1  0  1  0  0  0  0  0  0
   -1.0083    3.6354    0.0280 H   0  0  0  1  0  1  0  0  0  0  0  0
   -0.2567   -3.8439    0.6074 H   0  0  0  1  0  1  0  0  0  0  0  0
   -2.3504   -2.5572    0.6184 H   0  0  0  1  0  1  0  0  0  0  0  0
   -2.3137    5.6572    0.2352 H   0  0  0  1  0  1  0  0  0  0  0  0
   -2.2975    8.1402    0.2459 H   0  0  0  1  0  1  0  0  0  0  0  0
    1.9512    8.0048   -0.1570 H   0  0  0  1  0  1  0  0  0  0  0  0
    0.0083   10.1044    1.0685 H   0  0  0  1  0  1  0  0  0  0  0  0
    0.7489   10.0780   -0.5498 H   0  0  0  1  0  1  0  0  0  0  0  0
   -1.0219   10.1441   -0.3825 H   0  0  0  1  0  1  0  0  0  0  0  0
  1 12  2  0  0  0  0
  2  6  1  0  0  0  0
  2  7  2  0  0  0  0
  3 12  1  0  0  0  0
  3 13  1  0  0  0  0
  3 25  1  0  0  0  0
  4 13  2  0  0  0  0
  4 19  1  0  0  0  0
  5  6  1  0  0  0  0
  5  8  1  0  0  0  0
  5 10  2  0  0  0  0
  6 11  2  0  0  0  0
  7  9  1  0  0  0  0
  7 12  1  0  0  0  0
  8  9  2  0  0  0  0
  8 21  1  0  0  0  0
  9 22  1  0  0  0  0
 10 14  1  0  0  0  0
 10 23  1  0  0  0  0
 11 15  1  0  0  0  0
 11 24  1  0  0  0  0
 13 17  1  0  0  0  0
 14 15  2  0  0  0  0
 14 26  1  0  0  0  0
 15 27  1  0  0  0  0
 16 18  1  0  0  0  0
 16 19  2  0  0  0  0
 16 20  1  0  0  0  0
 17 18  2  0  0  0  0
 17 28  1  0  0  0  0
 18 29  1  0  0  0  0
 19 30  1  0  0  0  0
 20 31  1  0  0  0  0
 20 32  1  0  0  0  0
 20 33  1  0  0  0  0
M  END
> <Activity>
1.64

> <Mapped(file=504701.csv.activities,property=Cached(PUBCHEM_COMPOUND_CID))>
1.64

> <PUBCHEM_ATOM_DEF_STEREO_COUNT>
0

> <PUBCHEM_ATOM_UDEF_STEREO_COUNT>
0

> <PUBCHEM_BONDANNOTATIONS>
10  14  8
11  15  8
13  17  8
14  15  8
16  18  8
16  19  8
17  18  8
2  6  8
2  7  8
4  13  8
4  19  8
5  10  8
5  6  8
5  8  8
6  11  8
7  9  8
8  9  8

> <PUBCHEM_BOND_DEF_STEREO_COUNT>
0

> <PUBCHEM_BOND_UDEF_STEREO_COUNT>
0

> <PUBCHEM_CACTVS_COMPLEXITY>
347

> <PUBCHEM_CACTVS_HBOND_ACCEPTOR>
3

> <PUBCHEM_CACTVS_HBOND_DONOR>
1

> <PUBCHEM_CACTVS_ROTATABLE_BOND>
2

> <PUBCHEM_CACTVS_SUBSKEYS>
AAADccB7IAAAAAAAAAAAAAAAAAAAAAAAAAA8WIAAAAAAAACx/AAAHgAQAAAADAjBngQ/8PLIEACoAzd3dACCgCk3AiAJ2CG4ZNiIYPLAnbGUIQholQLIyacYiICOAAAAAAACAAAAAAAAAAQAAAAAAAAAAA==

> <PUBCHEM_CACTVS_TAUTO_COUNT>
3

> <PUBCHEM_CACTVS_TPSA>
54.9

> <PUBCHEM_COMPONENT_COUNT>
1

> <PUBCHEM_COMPOUND_CANONICALIZED>
1

> <PUBCHEM_COMPOUND_CID>
797352

> <PUBCHEM_COORDINATE_TYPE>
1
5
255

> <PUBCHEM_EXACT_MASS>
263.105862

> <PUBCHEM_HEAVY_ATOM_COUNT>
20

> <PUBCHEM_ISOTOPIC_ATOM_COUNT>
0

> <PUBCHEM_IUPAC_CAS_NAME>
N-(5-methyl-2-pyridinyl)-2-quinolinecarboxamide

> <PUBCHEM_IUPAC_INCHI>
InChI=1S/C16H13N3O/c1-11-6-9-15(17-10-11)19-16(20)14-8-7-12-4-2-3-5-13(12)18-14/h2-10H,1H3,(H,17,19,20)

> <PUBCHEM_IUPAC_INCHIKEY>
QOBXTKFDZSBUOW-UHFFFAOYSA-N

> <PUBCHEM_IUPAC_NAME>
N-(5-methylpyridin-2-yl)quinoline-2-carboxamide

> <PUBCHEM_IUPAC_OPENEYE_NAME>
N-(5-methyl-2-pyridyl)quinoline-2-carboxamide

> <PUBCHEM_IUPAC_SYSTEMATIC_NAME>
N-(5-methylpyridin-2-yl)quinoline-2-carboxamide

> <PUBCHEM_IUPAC_TRADITIONAL_NAME>
N-(5-methyl-2-pyridyl)quinaldamide

> <PUBCHEM_MOLECULAR_FORMULA>
C16H13N3O

> <PUBCHEM_MOLECULAR_WEIGHT>
263.29392

> <PUBCHEM_MONOISOTOPIC_WEIGHT>
263.105862

> <PUBCHEM_OPENEYE_CAN_SMILES>
CC1=CN=C(C=C1)NC(=O)C2=NC3=CC=CC=C3C=C2

> <PUBCHEM_OPENEYE_ISO_SMILES>
CC1=CN=C(C=C1)NC(=O)C2=NC3=CC=CC=C3C=C2

> <PUBCHEM_TOTAL_CHARGE>
0

> <PUBCHEM_XLOGP3_AA>
3

$$$$
Written by BCL::WriteToMDL,1604503
MBcorina  10171218483D 1   1.00000     0.00000 
CORINA 3.49 0026  01.06.2011
 58 60  0  0  0  0  0  0  0  0999 V2000
    0.8515    0.9280    1.1687 O   0  0  0  1  0  2  0  0  0  0  0  0
   -1.1912    1.3767    1.5156 O   0  0  0  1  0  1  0  0  0  0  0  0
   -3.9113    0.4082    0.1420 O   0  0  0  1  0  1  0  0  0  0  0  0
   -0.5833    5.3875    3.0570 O   0  5  0  1  0  1  0  0  0  0  0  0
    1.0023    6.8926    3.7080 O   0  0  0  1  0  1  0  0  0  0  0  0
   -2.2866    1.7368   -0.3809 N   0  0  0  1  0  3  0  0  0  0  0  0
   -2.4939   -1.2513   -0.2667 N   0  0  0  1  0  3  0  0  0  0  0  0
    0.6826    5.7105    3.2234 N   0  3  0  1  0  3  0  0  0  0  0  0
   -2.3650    3.1758   -0.1174 C   0  0  0  1  0  4  0  0  0  0  0  0
   -0.9519    3.7546   -0.0222 C   0  0  0  1  0  4  0  0  0  0  0  0
   -3.1217    3.8624   -1.2562 C   0  0  0  1  0  4  0  0  0  0  0  0
   -3.1033    3.4133    1.2015 C   0  0  0  1  0  4  0  0  0  0  0  0
   -1.6298    0.9297    0.4756 C   0  0  0  1  0  3  0  0  0  0  0  0
   -1.4423   -0.5102    0.1464 C   0  0  0  1  0  3  0  0  0  0  0  0
   -0.1752   -1.0967    0.2648 C   0  0  0  1  0  3  0  0  0  0  0  0
    0.9006   -0.3404    0.7060 C   0  0  0  1  0  3  0  0  0  0  0  0
    2.0901    1.3288    1.5020 C   0  0  0  1  0  3  0  0  0  0  0  0
    2.3065   -0.7707    0.7564 C   0  0  0  1  0  3  0  0  0  0  0  0
    2.4251    2.6030    2.0241 C   0  0  0  1  0  3  0  0  0  0  0  0
   -3.7315   -0.7179   -0.2773 C   0  0  0  1  0  3  0  0  0  0  0  0
    3.0096    0.2799    1.2505 C   0  0  0  1  0  3  0  0  0  0  0  0
   -4.8696   -1.5024   -0.7987 C   0  0  0  1  0  3  0  0  0  0  0  0
    1.4113    3.5194    2.3633 C   0  0  0  1  0  3  0  0  0  0  0  0
    3.7745    2.9599    2.2128 C   0  0  0  1  0  3  0  0  0  0  0  0
   -6.1533   -0.9528   -0.8112 C   0  0  0  1  0  3  0  0  0  0  0  0
   -4.6656   -2.7949   -1.2867 C   0  0  0  1  0  3  0  0  0  0  0  0
   -7.0031   -2.9733   -1.7757 C   0  0  0  1  0  3  0  0  0  0  0  0
    1.7459    4.7450    2.8658 C   0  0  0  1  0  3  0  0  0  0  0  0
   -7.2114   -1.6909   -1.2994 C   0  0  0  1  0  3  0  0  0  0  0  0
   -5.7326   -3.5218   -1.7720 C   0  0  0  1  0  3  0  0  0  0  0  0
    4.0857    4.1907    2.7167 C   0  0  0  1  0  3  0  0  0  0  0  0
    3.0784    5.0881    3.0417 C   0  0  0  1  0  3  0  0  0  0  0  0
   -8.1642   -3.7740   -2.3066 C   0  0  0  1  0  4  0  0  0  0  0  0
   -0.4589    3.6705   -0.9907 H   0  0  0  1  0  1  0  0  0  0  0  0
   -1.0078    4.8040    0.2672 H   0  0  0  1  0  1  0  0  0  0  0  0
   -0.3823    3.2015    0.7246 H   0  0  0  1  0  1  0  0  0  0  0  0
   -4.1284    3.4500   -1.3240 H   0  0  0  1  0  1  0  0  0  0  0  0
   -3.1800    4.9330   -1.0602 H   0  0  0  1  0  1  0  0  0  0  0  0
   -2.5957    3.6932   -2.1958 H   0  0  0  1  0  1  0  0  0  0  0  0
   -2.5642    2.9242    2.0128 H   0  0  0  1  0  1  0  0  0  0  0  0
   -3.1616    4.4839    1.3976 H   0  0  0  1  0  1  0  0  0  0  0  0
   -4.1100    3.0010    1.1337 H   0  0  0  1  0  1  0  0  0  0  0  0
   -2.7074    1.3650   -1.1718 H   0  0  0  1  0  1  0  0  0  0  0  0
   -0.0362   -2.1376    0.0126 H   0  0  0  1  0  1  0  0  0  0  0  0
   -2.3580   -2.1673   -0.5556 H   0  0  0  1  0  1  0  0  0  0  0  0
    2.7006   -1.7315    0.4598 H   0  0  0  1  0  1  0  0  0  0  0  0
    4.0756    0.3110    1.4208 H   0  0  0  1  0  1  0  0  0  0  0  0
    0.3732    3.2546    2.2265 H   0  0  0  1  0  1  0  0  0  0  0  0
    4.5600    2.2630    1.9605 H   0  0  0  1  0  1  0  0  0  0  0  0
   -6.3174    0.0477   -0.4391 H   0  0  0  1  0  1  0  0  0  0  0  0
   -3.6745   -3.2241   -1.2844 H   0  0  0  1  0  1  0  0  0  0  0  0
   -8.2047   -1.2670   -1.3096 H   0  0  0  1  0  1  0  0  0  0  0  0
   -5.5762   -4.5213   -2.1500 H   0  0  0  1  0  1  0  0  0  0  0  0
    5.1196    4.4666    2.8623 H   0  0  0  1  0  1  0  0  0  0  0  0
    3.3337    6.0594    3.4389 H   0  0  0  1  0  1  0  0  0  0  0  0
   -8.2739   -3.5900   -3.3754 H   0  0  0  1  0  1  0  0  0  0  0  0
   -7.9813   -4.8352   -2.1375 H   0  0  0  1  0  1  0  0  0  0  0  0
   -9.0771   -3.4759   -1.7910 H   0  0  0  1  0  1  0  0  0  0  0  0
  1 16  1  0  0  0  0
  1 17  1  0  0  0  0
  2 13  2  0  0  0  0
  3 20  2  0  0  0  0
  4  8  1  0  0  0  0
  5  8  2  0  0  0  0
  6  9  1  0  0  0  0
  6 13  1  0  0  0  0
  6 43  1  0  0  0  0
  7 14  1  0  0  0  0
  7 20  1  0  0  0  0
  7 45  1  0  0  0  0
  8 28  1  0  0  0  0
  9 10  1  0  0  0  0
  9 11  1  0  0  0  0
  9 12  1  0  0  0  0
 10 34  1  0  0  0  0
 10 35  1  0  0  0  0
 10 36  1  0  0  0  0
 11 37  1  0  0  0  0
 11 38  1  0  0  0  0
 11 39  1  0  0  0  0
 12 40  1  0  0  0  0
 12 41  1  0  0  0  0
 12 42  1  0  0  0  0
 13 14  1  0  0  0  0
 14 15  2  0  0  0  0
 15 16  1  0  0  0  0
 15 44  1  0  0  0  0
 16 18  2  0  0  0  0
 17 19  1  0  0  0  0
 17 21  2  0  0  0  0
 18 21  1  0  0  0  0
 18 46  1  0  0  0  0
 19 23  2  0  0  0  0
 19 24  1  0  0  0  0
 20 22  1  0  0  0  0
 21 47  1  0  0  0  0
 22 25  2  0  0  0  0
 22 26  1  0  0  0  0
 23 28  1  0  0  0  0
 23 48  1  0  0  0  0
 24 31  2  0  0  0  0
 24 49  1  0  0  0  0
 25 29  1  0  0  0  0
 25 50  1  0  0  0  0
 26 30  2  0  0  0  0
 26 51  1  0  0  0  0
 27 29  2  0  0  0  0
 27 30  1  0  0  0  0
 27 33  1  0  0  0  0
 28 32  2  0  0  0  0
 29 52  1  0  0  0  0
 30 53  1  0  0  0  0
 31 32  1  0  0  0  0
 31 54  1  0  0  0  0
 32 55  1  0  0  0  0
 33 56  1  0  0  0  0
 33 57  1  0  0  0  0
 33 58  1  0  0  0  0
M  END
> <Activity>
2.087

> <Mapped(file=504701.csv.activities,property=Cached(PUBCHEM_COMPOUND_CID))>
2.087

> <PUBCHEM_ATOM_DEF_STEREO_COUNT>
0

> <PUBCHEM_ATOM_UDEF_STEREO_COUNT>
0

> <PUBCHEM_BONDANNOTATIONS>
1  16  8
1  17  8
16  18  8
17  21  8
18  21  8
19  23  8
19  24  8
22  25  8
22  26  8
23  28  8
24  31  8
25  29  8
26  30  8
27  29  8
27  30  8
28  32  8
31  32  8

> <PUBCHEM_BOND_DEF_STEREO_COUNT>
1

> <PUBCHEM_BOND_UDEF_STEREO_COUNT>
0

> <PUBCHEM_CACTVS_COMPLEXITY>
746

> <PUBCHEM_CACTVS_HBOND_ACCEPTOR>
5

> <PUBCHEM_CACTVS_HBOND_DONOR>
2

> <PUBCHEM_CACTVS_ROTATABLE_BOND>
6

> <PUBCHEM_CACTVS_SUBSKEYS>
AAADceB7OAAAAAAAAAAAAAAAAAAAASAAAAAwYAAAAAAAAAAB0AAAHgAUAAAADIyBmAAyxILQRECJAqVSUwCCCAAkIgAoiAGGbMoMZjKEtbuWOSjk1BGI6ce8yPCOQAAAQAAAAACAAACAAAAAAAAAAAAAAA==

> <PUBCHEM_CACTVS_TAUTO_COUNT>
10

> <PUBCHEM_CACTVS_TPSA>
117

> <PUBCHEM_COMPONENT_COUNT>
1

> <PUBCHEM_COMPOUND_CANONICALIZED>
1

> <PUBCHEM_COMPOUND_CID>
1604503

> <PUBCHEM_COORDINATE_TYPE>
1
5
255

> <PUBCHEM_EXACT_MASS>
447.179421

> <PUBCHEM_HEAVY_ATOM_COUNT>
33

> <PUBCHEM_ISOTOPIC_ATOM_COUNT>
0

> <PUBCHEM_IUPAC_CAS_NAME>
N-[(E)-3-(tert-butylamino)-1-[5-(3-nitrophenyl)-2-furanyl]-3-oxoprop-1-en-2-yl]-4-methylbenzamide

> <PUBCHEM_IUPAC_INCHI>
InChI=1S/C25H25N3O5/c1-16-8-10-17(11-9-16)23(29)26-21(24(30)27-25(2,3)4)15-20-12-13-22(33-20)18-6-5-7-19(14-18)28(31)32/h5-15H,1-4H3,(H,26,29)(H,27,30)/b21-15+

> <PUBCHEM_IUPAC_INCHIKEY>
WGXNPTNIXGROQI-RCCKNPSSSA-N

> <PUBCHEM_IUPAC_NAME>
N-[(E)-3-(tert-butylamino)-1-[5-(3-nitrophenyl)furan-2-yl]-3-oxoprop-1-en-2-yl]-4-methylbenzamide

> <PUBCHEM_IUPAC_OPENEYE_NAME>
N-[(E)-1-(tert-butylcarbamoyl)-2-[5-(3-nitrophenyl)-2-furyl]vinyl]-4-methyl-benzamide

> <PUBCHEM_IUPAC_SYSTEMATIC_NAME>
N-[(E)-3-(tert-butylamino)-1-[5-(3-nitrophenyl)furan-2-yl]-3-oxidanylidene-prop-1-en-2-yl]-4-methyl-benzamide

> <PUBCHEM_IUPAC_TRADITIONAL_NAME>
N-[(E)-1-(tert-butylcarbamoyl)-2-[5-(3-nitrophenyl)-2-furyl]vinyl]-4-methyl-benzamide

> <PUBCHEM_MOLECULAR_FORMULA>
C25H25N3O5

> <PUBCHEM_MOLECULAR_WEIGHT>
447.4831

> <PUBCHEM_MONOISOTOPIC_WEIGHT>
447.179421

> <PUBCHEM_OPENEYE_CAN_SMILES>
CC1=CC=C(C=C1)C(=O)NC(=CC2=CC=C(O2)C3=CC(=CC=C3)[N+](=O)[O-])C(=O)NC(C)(C)C

> <PUBCHEM_OPENEYE_ISO_SMILES>
CC1=CC=C(C=C1)C(=O)N/C(=C/C2=CC=C(O2)C3=CC(=CC=C3)[N+](=O)[O-])/C(=O)NC(C)(C)C

> <PUBCHEM_TOTAL_CHARGE>
0

> <PUBCHEM_XLOGP3_AA>
4.6

$$$$
Written by BCL::WriteToMDL,1012499
MBcorina  10171218483D 1   1.00000     0.00000 
CORINA 3.49 0026  01.06.2011
 50 53  0  0  0  0  0  0  0  0999 V2000
   -1.6423    3.4388   -0.7123 Cl  0  0  0  1  0  1  0  0  0  0  0  0
    3.7921   -1.6832   -0.4409 O   0  0  0  1  0  1  0  0  0  0  0  0
    8.3113   -0.3069    0.2098 O   0  0  0  1  0  1  0  0  0  0  0  0
   -0.0020    1.5525   -0.6014 N   0  0  0  1  0  2  0  0  0  0  0  0
    4.8796    0.2304   -0.1457 N   0  0  0  1  0  3  0  0  0  0  0  0
    6.1102   -0.4338   -0.0595 N   0  0  0  1  0  3  0  0  0  0  0  0
    7.1927    1.6116    0.2467 N   0  0  0  1  0  3  0  0  0  0  0  0
    1.1883   -0.5112   -0.5251 C   0  0  0  1  0  3  0  0  0  0  0  0
    2.4473    0.2283   -0.4312 C   0  0  0  1  0  3  0  0  0  0  0  0
   -0.0244    0.2186   -0.6092 C   0  0  0  1  0  3  0  0  0  0  0  0
    1.1190    2.2370   -0.5173 C   0  0  0  1  0  3  0  0  0  0  0  0
    2.3735    1.6136   -0.4301 C   0  0  0  1  0  3  0  0  0  0  0  0
    1.0544    3.7181   -0.5151 C   0  0  0  1  0  3  0  0  0  0  0  0
    1.1606   -1.9098   -0.5330 C   0  0  0  1  0  3  0  0  0  0  0  0
   -1.2385   -0.4865   -0.6997 C   0  0  0  1  0  3  0  0  0  0  0  0
    3.7465   -0.4729   -0.3402 C   0  0  0  1  0  3  0  0  0  0  0  0
   -0.0351   -2.5594   -0.6219 C   0  0  0  1  0  3  0  0  0  0  0  0
   -1.2296   -1.8477   -0.7049 C   0  0  0  1  0  3  0  0  0  0  0  0
   -0.1787    4.3657   -0.6012 C   0  0  0  1  0  3  0  0  0  0  0  0
    2.2246    4.4694   -0.4214 C   0  0  0  1  0  3  0  0  0  0  0  0
    8.3767    2.3501    0.3536 C   0  0  0  1  0  3  0  0  0  0  0  0
   -0.2319    5.7458   -0.5981 C   0  0  0  1  0  3  0  0  0  0  0  0
    2.1584    5.8480   -0.4193 C   0  0  0  1  0  3  0  0  0  0  0  0
    9.6377    4.3331   -0.1228 C   0  0  0  1  0  3  0  0  0  0  0  0
    8.4682    3.6068   -0.2305 C   0  0  0  1  0  3  0  0  0  0  0  0
    0.9339    6.4851   -0.5105 C   0  0  0  1  0  3  0  0  0  0  0  0
    9.4603    1.8303    1.0488 C   0  0  0  1  0  3  0  0  0  0  0  0
   10.7172    3.8104    0.5659 C   0  0  0  1  0  3  0  0  0  0  0  0
    7.2433    0.2695    0.1350 C   0  0  0  1  0  3  0  0  0  0  0  0
   10.6274    2.5618    1.1530 C   0  0  0  1  0  3  0  0  0  0  0  0
    9.7379    5.6968   -0.7564 C   0  0  0  1  0  4  0  0  0  0  0  0
    3.2732    2.2071   -0.3624 H   0  0  0  1  0  1  0  0  0  0  0  0
    2.0808   -2.4717   -0.4699 H   0  0  0  1  0  1  0  0  0  0  0  0
   -2.1737    0.0499   -0.7643 H   0  0  0  1  0  1  0  0  0  0  0  0
   -0.0562   -3.6392   -0.6280 H   0  0  0  1  0  1  0  0  0  0  0  0
   -2.1640   -2.3847   -0.7741 H   0  0  0  1  0  1  0  0  0  0  0  0
    3.1815    3.9737   -0.3500 H   0  0  0  1  0  1  0  0  0  0  0  0
    4.8432    1.1964   -0.0653 H   0  0  0  1  0  1  0  0  0  0  0  0
   -1.1853    6.2487   -0.6646 H   0  0  0  1  0  1  0  0  0  0  0  0
    3.0648    6.4307   -0.3463 H   0  0  0  1  0  1  0  0  0  0  0  0
    7.6257    4.0154   -0.7688 H   0  0  0  1  0  1  0  0  0  0  0  0
    0.8877    7.5641   -0.5088 H   0  0  0  1  0  1  0  0  0  0  0  0
    6.1466   -1.3998   -0.1399 H   0  0  0  1  0  1  0  0  0  0  0  0
    6.3356    2.0658    0.2530 H   0  0  0  1  0  1  0  0  0  0  0  0
    9.3907    0.8552    1.5080 H   0  0  0  1  0  1  0  0  0  0  0  0
   11.6309    4.3802    0.6484 H   0  0  0  1  0  1  0  0  0  0  0  0
   11.4706    2.1583    1.6939 H   0  0  0  1  0  1  0  0  0  0  0  0
    9.4161    6.4541   -0.0415 H   0  0  0  1  0  1  0  0  0  0  0  0
   10.7710    5.8873   -1.0471 H   0  0  0  1  0  1  0  0  0  0  0  0
    9.0992    5.7353   -1.6388 H   0  0  0  1  0  1  0  0  0  0  0  0
  1 19  1  0  0  0  0
  2 16  2  0  0  0  0
  3 29  2  0  0  0  0
  4 10  1  0  0  0  0
  4 11  2  0  0  0  0
  5  6  1  0  0  0  0
  5 16  1  0  0  0  0
  5 38  1  0  0  0  0
  6 29  1  0  0  0  0
  6 43  1  0  0  0  0
  7 21  1  0  0  0  0
  7 29  1  0  0  0  0
  7 44  1  0  0  0  0
  8  9  1  0  0  0  0
  8 10  1  0  0  0  0
  8 14  2  0  0  0  0
  9 12  2  0  0  0  0
  9 16  1  0  0  0  0
 10 15  2  0  0  0  0
 11 12  1  0  0  0  0
 11 13  1  0  0  0  0
 12 32  1  0  0  0  0
 13 19  1  0  0  0  0
 13 20  2  0  0  0  0
 14 17  1  0  0  0  0
 14 33  1  0  0  0  0
 15 18  1  0  0  0  0
 15 34  1  0  0  0  0
 17 18  2  0  0  0  0
 17 35  1  0  0  0  0
 18 36  1  0  0  0  0
 19 22  2  0  0  0  0
 20 23  1  0  0  0  0
 20 37  1  0  0  0  0
 21 25  1  0  0  0  0
 21 27  2  0  0  0  0
 22 26  1  0  0  0  0
 22 39  1  0  0  0  0
 23 26  2  0  0  0  0
 23 40  1  0  0  0  0
 24 25  2  0  0  0  0
 24 28  1  0  0  0  0
 24 31  1  0  0  0  0
 25 41  1  0  0  0  0
 26 42  1  0  0  0  0
 27 30  1  0  0  0  0
 27 45  1  0  0  0  0
 28 30  2  0  0  0  0
 28 46  1  0  0  0  0
 30 47  1  0  0  0  0
 31 48  1  0  0  0  0
 31 49  1  0  0  0  0
 31 50  1  0  0  0  0
M  END
> <Activity>
0.81526

> <Mapped(file=504701.csv.activities,property=Cached(PUBCHEM_COMPOUND_CID))>
0.81526

> <PUBCHEM_ATOM_DEF_STEREO_COUNT>
0

> <PUBCHEM_ATOM_UDEF_STEREO_COUNT>
0

> <PUBCHEM_BONDANNOTATIONS>
10  15  8
11  12  8
13  19  8
13  20  8
14  17  8
15  18  8
17  18  8
19  22  8
20  23  8
21  25  8
21  27  8
22  26  8
23  26  8
24  25  8
24  28  8
27  30  8
28  30  8
4  10  8
4  11  8
8  10  8
8  14  8
8  9  8
9  12  8

> <PUBCHEM_BOND_DEF_STEREO_COUNT>
0

> <PUBCHEM_BOND_UDEF_STEREO_COUNT>
0

> <PUBCHEM_CACTVS_COMPLEXITY>
633

> <PUBCHEM_CACTVS_HBOND_ACCEPTOR>
3

> <PUBCHEM_CACTVS_HBOND_DONOR>
3

> <PUBCHEM_CACTVS_ROTATABLE_BOND>
3

> <PUBCHEM_CACTVS_SUBSKEYS>
AAADceB7sAAEAAAAAAAAAAAAAAAAAAAAAAA8YMEAAAAAAACx9AAAHgIYAAAADAqBniAzwPLqEACoAyVyVACCgCAlByIeuCEwZtiIIPLBl5GEIQhwlALIyacciMCOgAAAQAADAAAAAACAAAYAAAAAAAAAAA==

> <PUBCHEM_CACTVS_TAUTO_COUNT>
14

> <PUBCHEM_CACTVS_TPSA>
83.1

> <PUBCHEM_COMPONENT_COUNT>
1

> <PUBCHEM_COMPOUND_CANONICALIZED>
1

> <PUBCHEM_COMPOUND_CID>
1012499

> <PUBCHEM_COORDINATE_TYPE>
1
5
255

> <PUBCHEM_EXACT_MASS>
430.119654

> <PUBCHEM_HEAVY_ATOM_COUNT>
31

> <PUBCHEM_ISOTOPIC_ATOM_COUNT>
0

> <PUBCHEM_IUPAC_CAS_NAME>
1-[[[2-(2-chlorophenyl)-4-quinolinyl]-oxomethyl]amino]-3-(3-methylphenyl)urea

> <PUBCHEM_IUPAC_INCHI>
InChI=1S/C24H19ClN4O2/c1-15-7-6-8-16(13-15)26-24(31)29-28-23(30)19-14-22(18-10-2-4-11-20(18)25)27-21-12-5-3-9-17(19)21/h2-14H,1H3,(H,28,30)(H2,26,29,31)

> <PUBCHEM_IUPAC_INCHIKEY>
KMHOUFSOQJOPJN-UHFFFAOYSA-N

> <PUBCHEM_IUPAC_NAME>
1-[[2-(2-chlorophenyl)quinoline-4-carbonyl]amino]-3-(3-methylphenyl)urea

> <PUBCHEM_IUPAC_OPENEYE_NAME>
1-[[2-(2-chlorophenyl)quinoline-4-carbonyl]amino]-3-(m-tolyl)urea

> <PUBCHEM_IUPAC_SYSTEMATIC_NAME>
1-[[2-(2-chlorophenyl)quinolin-4-yl]carbonylamino]-3-(3-methylphenyl)urea

> <PUBCHEM_IUPAC_TRADITIONAL_NAME>
1-[[2-(2-chlorophenyl)quinoline-4-carbonyl]amino]-3-(m-tolyl)urea

> <PUBCHEM_MOLECULAR_FORMULA>
C24H19ClN4O2

> <PUBCHEM_MOLECULAR_WEIGHT>
430.88626

> <PUBCHEM_MONOISOTOPIC_WEIGHT>
430.119654

> <PUBCHEM_OPENEYE_CAN_SMILES>
CC1=CC(=CC=C1)NC(=O)NNC(=O)C2=CC(=NC3=CC=CC=C32)C4=CC=CC=C4Cl

> <PUBCHEM_OPENEYE_ISO_SMILES>
CC1=CC(=CC=C1)NC(=O)NNC(=O)C2=CC(=NC3=CC=CC=C32)C4=CC=CC=C4Cl

> <PUBCHEM_TOTAL_CHARGE>
0

> <PUBCHEM_XLOGP3_AA>
5

$$$$
Written by BCL::WriteToMDL,16456743
MBcorina  10171218483D 1   1.00000     0.00000 
CORINA 3.49 0026  01.06.2011
 36 38  0  0  0  0  0  0  0  0999 V2000
    8.7491   -2.5898    1.0139 Cl  0  0  0  1  0  1  0  0  0  0  0  0
    0.2173    1.9202    0.1068 N   0  0  0  1  0  3  0  0  0  0  0  0
    4.3390   -0.2180   -0.0410 N   0  0  0  1  0  3  0  0  0  0  0  0
    2.2593    3.2781    0.5132 N   0  0  0  1  0  2  0  0  0  0  0  0
    4.2538    2.0920    0.4123 N   0  0  0  1  0  2  0  0  0  0  0  0
    0.0682    0.5562   -0.1740 N   0  0  0  1  0  2  0  0  0  0  0  0
    4.2800    4.3811    0.8672 N   0  0  0  1  0  3  0  0  0  0  0  0
    2.2219    0.9634    0.0516 C   0  0  0  1  0  3  0  0  0  0  0  0
    1.5472    2.1841    0.2486 C   0  0  0  1  0  3  0  0  0  0  0  0
    3.6278    0.9524    0.1440 C   0  0  0  1  0  3  0  0  0  0  0  0
    1.2382   -0.0152   -0.2088 C   0  0  0  1  0  3  0  0  0  0  0  0
    5.7365   -0.1909   -0.0614 C   0  0  0  1  0  3  0  0  0  0  0  0
    3.5781    3.2211    0.5901 C   0  0  0  1  0  3  0  0  0  0  0  0
   -0.8688    2.8967    0.2220 C   0  0  0  1  0  4  0  0  0  0  0  0
    6.4605   -1.2707    0.4265 C   0  0  0  1  0  3  0  0  0  0  0  0
    6.4038    0.9141   -0.5753 C   0  0  0  1  0  3  0  0  0  0  0  0
    8.5034   -0.1359   -0.1031 C   0  0  0  1  0  3  0  0  0  0  0  0
    7.8424   -1.2407    0.4043 C   0  0  0  1  0  3  0  0  0  0  0  0
    7.7843    0.9382   -0.5948 C   0  0  0  1  0  3  0  0  0  0  0  0
   10.0100   -0.1055   -0.1251 C   0  0  0  1  0  4  0  0  0  0  0  0
    5.7418    4.3485    0.9586 C   0  0  0  1  0  4  0  0  0  0  0  0
    3.8684   -1.0583   -0.1566 H   0  0  0  1  0  1  0  0  0  0  0  0
    1.4243   -1.0610   -0.4038 H   0  0  0  1  0  1  0  0  0  0  0  0
   -1.2102    2.9401    1.2562 H   0  0  0  1  0  1  0  0  0  0  0  0
   -0.5081    3.8790   -0.0831 H   0  0  0  1  0  1  0  0  0  0  0  0
   -1.6962    2.5975   -0.4215 H   0  0  0  1  0  1  0  0  0  0  0  0
    5.9446   -2.1327    0.8231 H   0  0  0  1  0  1  0  0  0  0  0  0
    5.8432    1.7534   -0.9595 H   0  0  0  1  0  1  0  0  0  0  0  0
    8.3031    1.7970   -0.9942 H   0  0  0  1  0  1  0  0  0  0  0  0
    3.8042    5.2157    1.0009 H   0  0  0  1  0  1  0  0  0  0  0  0
   10.3681   -0.5246   -1.0655 H   0  0  0  1  0  1  0  0  0  0  0  0
   10.3540    0.9245   -0.0320 H   0  0  0  1  0  1  0  0  0  0  0  0
   10.3974   -0.6946    0.7061 H   0  0  0  1  0  1  0  0  0  0  0  0
    6.0411    3.6638    1.7521 H   0  0  0  1  0  1  0  0  0  0  0  0
    6.1577    4.0093    0.0099 H   0  0  0  1  0  1  0  0  0  0  0  0
    6.1143    5.3483    1.1818 H   0  0  0  1  0  1  0  0  0  0  0  0
  1 18  1  0  0  0  0
  2  6  1  0  0  0  0
  2  9  1  0  0  0  0
  2 14  1  0  0  0  0
  3 10  1  0  0  0  0
  3 12  1  0  0  0  0
  3 22  1  0  0  0  0
  4  9  2  0  0  0  0
  4 13  1  0  0  0  0
  5 10  1  0  0  0  0
  5 13  2  0  0  0  0
  6 11  2  0  0  0  0
  7 13  1  0  0  0  0
  7 21  1  0  0  0  0
  7 30  1  0  0  0  0
  8  9  1  0  0  0  0
  8 10  2  0  0  0  0
  8 11  1  0  0  0  0
 11 23  1  0  0  0  0
 12 15  2  0  0  0  0
 12 16  1  0  0  0  0
 14 24  1  0  0  0  0
 14 25  1  0  0  0  0
 14 26  1  0  0  0  0
 15 18  1  0  0  0  0
 15 27  1  0  0  0  0
 16 19  2  0  0  0  0
 16 28  1  0  0  0  0
 17 18  2  0  0  0  0
 17 19  1  0  0  0  0
 17 20  1  0  0  0  0
 19 29  1  0  0  0  0
 20 31  1  0  0  0  0
 20 32  1  0  0  0  0
 20 33  1  0  0  0  0
 21 34  1  0  0  0  0
 21 35  1  0  0  0  0
 21 36  1  0  0  0  0
M  END
> <Activity>
2.068

> <Mapped(file=504701.csv.activities,property=Cached(PUBCHEM_COMPOUND_CID))>
2.068

> <PUBCHEM_ATOM_DEF_STEREO_COUNT>
0

> <PUBCHEM_ATOM_UDEF_STEREO_COUNT>
0

> <PUBCHEM_BONDANNOTATIONS>
12  15  8
12  16  8
15  18  8
16  19  8
17  18  8
17  19  8
2  6  8
2  9  8
4  13  8
4  9  8
5  10  8
5  13  8
6  11  8
8  10  8
8  11  8
8  9  8

> <PUBCHEM_BOND_DEF_STEREO_COUNT>
0

> <PUBCHEM_BOND_UDEF_STEREO_COUNT>
0

> <PUBCHEM_CACTVS_COMPLEXITY>
356

> <PUBCHEM_CACTVS_HBOND_ACCEPTOR>
1

> <PUBCHEM_CACTVS_HBOND_DONOR>
2

> <PUBCHEM_CACTVS_ROTATABLE_BOND>
3

> <PUBCHEM_CACTVS_SUBSKEYS>
AAADccBzgAAEAAAAAAAAAAAAAAAAAWAAAAA8QAAAAAAAAFgB/AAAHAIYAAAADArBGyQ/8N7IEACiAjZnZACShCshh6Ad2KAoZpiIKOLB29GEpAhomALIyCcQgAAOCAAAAAIBAAAQAAAABAIAAAAAAAAAAA==

> <PUBCHEM_CACTVS_TAUTO_COUNT>
12

> <PUBCHEM_CACTVS_TPSA>
67.7

> <PUBCHEM_COMPONENT_COUNT>
1

> <PUBCHEM_COMPOUND_CANONICALIZED>
1

> <PUBCHEM_COMPOUND_CID>
16456743

> <PUBCHEM_COORDINATE_TYPE>
1
5
255

> <PUBCHEM_EXACT_MASS>
302.104672

> <PUBCHEM_HEAVY_ATOM_COUNT>
21

> <PUBCHEM_ISOTOPIC_ATOM_COUNT>
0

> <PUBCHEM_IUPAC_CAS_NAME>
N4-(3-chloro-4-methylphenyl)-N6,1-dimethylpyrazolo[3,4-d]pyrimidine-4,6-diamine

> <PUBCHEM_IUPAC_INCHI>
InChI=1S/C14H15ClN6/c1-8-4-5-9(6-11(8)15)18-12-10-7-17-21(3)13(10)20-14(16-2)19-12/h4-7H,1-3H3,(H2,16,18,19,20)

> <PUBCHEM_IUPAC_INCHIKEY>
PDXZLMVSGGBMDK-UHFFFAOYSA-N

> <PUBCHEM_IUPAC_NAME>
4-N-(3-chloro-4-methylphenyl)-6-N,1-dimethylpyrazolo[3,4-d]pyrimidine-4,6-diamine

> <PUBCHEM_IUPAC_OPENEYE_NAME>
N4-(3-chloro-4-methyl-phenyl)-N6,1-dimethyl-pyrazolo[3,4-d]pyrimidine-4,6-diamine

> <PUBCHEM_IUPAC_SYSTEMATIC_NAME>
N4-(3-chloranyl-4-methyl-phenyl)-N6,1-dimethyl-pyrazolo[3,4-d]pyrimidine-4,6-diamine

> <PUBCHEM_IUPAC_TRADITIONAL_NAME>
[4-(3-chloro-4-methyl-anilino)-1-methyl-pyrazolo[3,4-d]pyrimidin-6-yl]-methyl-amine

> <PUBCHEM_MOLECULAR_FORMULA>
C14H15ClN6

> <PUBCHEM_MOLECULAR_WEIGHT>
302.7621

> <PUBCHEM_MONOISOTOPIC_WEIGHT>
302.104672

> <PUBCHEM_OPENEYE_CAN_SMILES>
CC1=C(C=C(C=C1)NC2=NC(=NC3=C2C=NN3C)NC)Cl

> <PUBCHEM_OPENEYE_ISO_SMILES>
CC1=C(C=C(C=C1)NC2=NC(=NC3=C2C=NN3C)NC)Cl

> <PUBCHEM_TOTAL_CHARGE>
0

> <PUBCHEM_XLOGP3_AA>
3.4

$$$$
Written by BCL::WriteToMDL,664510
MBcorina  10171218483D 1   1.00000     0.00000 
CORINA 3.49 0026  01.06.2011
 30 32  0  0  0  0  0  0  0  0999 V2000
   -0.0162    1.3432    0.0094 O   0  0  0  1  0  2  0  0  0  0  0  0
    1.2417   -0.4247   -0.0121 N   0  0  0  1  0  2  0  0  0  0  0  0
    1.6730    3.0940    0.0031 N   0  0  0  1  0  3  0  0  0  0  0  0
    4.6336    0.6184   -0.0381 N   0  0  0  1  0  1  0  0  0  0  0  0
   -1.0547   -2.3260    0.0003 C   0  0  0  1  0  3  0  0  0  0  0  0
   -1.1902   -0.8710    0.0095 C   0  0  0  1  0  3  0  0  0  0  0  0
   -2.2264   -3.1220    0.0075 C   0  0  0  1  0  3  0  0  0  0  0  0
    0.0021   -0.0041    0.0020 C   0  0  0  1  0  3  0  0  0  0  0  0
   -2.4654   -0.3221    0.0249 C   0  0  0  1  0  3  0  0  0  0  0  0
    0.2011   -2.9439   -0.0211 C   0  0  0  1  0  3  0  0  0  0  0  0
   -3.4854   -2.4978    0.0237 C   0  0  0  1  0  3  0  0  0  0  0  0
   -2.1050   -4.5219   -0.0012 C   0  0  0  1  0  3  0  0  0  0  0  0
   -3.5871   -1.1409    0.0320 C   0  0  0  1  0  3  0  0  0  0  0  0
    0.2823   -4.3048   -0.0295 C   0  0  0  1  0  3  0  0  0  0  0  0
    1.2559    1.7817   -0.0004 C   0  0  0  1  0  3  0  0  0  0  0  0
   -0.8675   -5.0902   -0.0165 C   0  0  0  1  0  3  0  0  0  0  0  0
    2.0660    0.6551   -0.0141 C   0  0  0  1  0  3  0  0  0  0  0  0
    0.6859    4.1764    0.0183 C   0  0  0  1  0  4  0  0  0  0  0  0
    3.4978    0.6346   -0.0275 C   0  0  0  1  0  2  0  0  0  0  0  0
   -2.5862    0.7511    0.0319 H   0  0  0  1  0  1  0  0  0  0  0  0
    1.1005   -2.3460   -0.0313 H   0  0  0  1  0  1  0  0  0  0  0  0
   -4.3812   -3.1011    0.0292 H   0  0  0  1  0  1  0  0  0  0  0  0
   -2.9881   -5.1436    0.0044 H   0  0  0  1  0  1  0  0  0  0  0  0
   -4.5675   -0.6880    0.0444 H   0  0  0  1  0  1  0  0  0  0  0  0
    1.2518   -4.7803   -0.0464 H   0  0  0  1  0  1  0  0  0  0  0  0
   -0.7766   -6.1663   -0.0232 H   0  0  0  1  0  1  0  0  0  0  0  0
    2.6205    3.3018   -0.0045 H   0  0  0  1  0  1  0  0  0  0  0  0
    1.2003    5.1373    0.0189 H   0  0  0  1  0  1  0  0  0  0  0  0
    0.0532    4.1035   -0.8663 H   0  0  0  1  0  1  0  0  0  0  0  0
    0.0696    4.0936    0.9136 H   0  0  0  1  0  1  0  0  0  0  0  0
  1  8  1  0  0  0  0
  1 15  1  0  0  0  0
  2  8  2  0  0  0  0
  2 17  1  0  0  0  0
  3 15  1  0  0  0  0
  3 18  1  0  0  0  0
  3 27  1  0  0  0  0
  4 19  3  0  0  0  0
  5  6  1  0  0  0  0
  5  7  1  0  0  0  0
  5 10  2  0  0  0  0
  6  8  1  0  0  0  0
  6  9  2  0  0  0  0
  7 11  1  0  0  0  0
  7 12  2  0  0  0  0
  9 13  1  0  0  0  0
  9 20  1  0  0  0  0
 10 14  1  0  0  0  0
 10 21  1  0  0  0  0
 11 13  2  0  0  0  0
 11 22  1  0  0  0  0
 12 16  1  0  0  0  0
 12 23  1  0  0  0  0
 13 24  1  0  0  0  0
 14 16  2  0  0  0  0
 14 25  1  0  0  0  0
 15 17  2  0  0  0  0
 16 26  1  0  0  0  0
 17 19  1  0  0  0  0
 18 28  1  0  0  0  0
 18 29  1  0  0  0  0
 18 30  1  0  0  0  0
M  END
> <Activity>
0.88747

> <Mapped(file=504701.csv.activities,property=Cached(PUBCHEM_COMPOUND_CID))>
0.88747

> <PUBCHEM_ATOM_DEF_STEREO_COUNT>
0

> <PUBCHEM_ATOM_UDEF_STEREO_COUNT>
0

> <PUBCHEM_BONDANNOTATIONS>
1  15  8
1  8  8
10  14  8
11  13  8
12  16  8
14  16  8
15  17  8
2  17  8
2  8  8
5  10  8
5  6  8
5  7  8
6  9  8
7  11  8
7  12  8
9  13  8

> <PUBCHEM_BOND_DEF_STEREO_COUNT>
0

> <PUBCHEM_BOND_UDEF_STEREO_COUNT>
0

> <PUBCHEM_CACTVS_COMPLEXITY>
364

> <PUBCHEM_CACTVS_HBOND_ACCEPTOR>
2

> <PUBCHEM_CACTVS_HBOND_DONOR>
1

> <PUBCHEM_CACTVS_ROTATABLE_BOND>
2

> <PUBCHEM_CACTVS_SUBSKEYS>
AAADccBzIAAAAAAAAAAAAAAAAAAAAWAAAAAwYAAAAAAAAADB1AAAHgAQAAAADAiBngQyhNLIFEC4ByVyVASiiCAvcCAIiKGtXNkO5rLEtTmfOSjkxgHYqYeYyOCOgAACAAAQAAAAAAQAACAAAAAAAAAAAA==

> <PUBCHEM_CACTVS_TAUTO_COUNT>
1

> <PUBCHEM_CACTVS_TPSA>
61.8

> <PUBCHEM_COMPONENT_COUNT>
1

> <PUBCHEM_COMPOUND_CANONICALIZED>
1

> <PUBCHEM_COMPOUND_CID>
664510

> <PUBCHEM_COORDINATE_TYPE>
1
3

> <PUBCHEM_EXACT_MASS>
249.090212

> <PUBCHEM_HEAVY_ATOM_COUNT>
19

> <PUBCHEM_ISOTOPIC_ATOM_COUNT>
0

> <PUBCHEM_IUPAC_CAS_NAME>
5-(methylamino)-2-(1-naphthalenyl)-4-oxazolecarbonitrile

> <PUBCHEM_IUPAC_INCHI>
InChI=1S/C15H11N3O/c1-17-15-13(9-16)18-14(19-15)12-8-4-6-10-5-2-3-7-11(10)12/h2-8,17H,1H3

> <PUBCHEM_IUPAC_INCHIKEY>
DYXYXTDIFMDJIR-UHFFFAOYSA-N

> <PUBCHEM_IUPAC_NAME>
5-(methylamino)-2-naphthalen-1-yl-1,3-oxazole-4-carbonitrile

> <PUBCHEM_IUPAC_OPENEYE_NAME>
5-(methylamino)-2-(1-naphthyl)oxazole-4-carbonitrile

> <PUBCHEM_IUPAC_SYSTEMATIC_NAME>
5-(methylamino)-2-naphthalen-1-yl-1,3-oxazole-4-carbonitrile

> <PUBCHEM_IUPAC_TRADITIONAL_NAME>
5-(methylamino)-2-(1-naphthyl)oxazole-4-carbonitrile

> <PUBCHEM_MOLECULAR_FORMULA>
C15H11N3O

> <PUBCHEM_MOLECULAR_WEIGHT>
249.26734

> <PUBCHEM_MONOISOTOPIC_WEIGHT>
249.090212

> <PUBCHEM_OPENEYE_CAN_SMILES>
CNC1=C(N=C(O1)C2=CC=CC3=CC=CC=C32)C#N

> <PUBCHEM_OPENEYE_ISO_SMILES>
CNC1=C(N=C(O1)C2=CC=CC3=CC=CC=C32)C#N

> <PUBCHEM_TOTAL_CHARGE>
0

> <PUBCHEM_XLOGP3_AA>
4.2

$$$$
Written by BCL::WriteToMDL,2997660
MBcorina  10171218483D 1   1.00000     0.00000 
CORINA 3.49 0026  01.06.2011
 34 37  0  0  0  0  0  0  0  0999 V2000
   -0.0218    1.7541    0.0117 S   0  0  0  1  0  2  0  0  0  0  0  0
    1.8860    4.6764    0.0085 S   0  0  0  1  0  2  0  0  0  0  0  0
   -5.1048   -0.6574   -1.5900 O   0  0  0  1  0  2  0  0  0  0  0  0
   -2.4158   -0.3143    0.0224 O   0  0  0  1  0  2  0  0  0  0  0  0
   -3.5701   -2.2286   -2.1862 O   0  0  0  1  0  1  0  0  0  0  0  0
   -1.0582   -2.0737   -0.0001 O   0  0  0  1  0  1  0  0  0  0  0  0
    3.8339    3.0823   -0.0171 N   0  0  0  1  0  2  0  0  0  0  0  0
   -3.5451   -1.2270    0.0276 C   0  0  0  1  0  4  0  0  0  0  0  0
   -4.7453   -0.5945    0.7661 C   0  0  0  1  0  4  0  0  0  0  0  0
   -5.8292   -0.5199   -0.3305 C   0  0  0  1  0  4  0  0  0  0  0  0
   -4.0435   -1.4587   -1.3843 C   0  0  0  1  0  3  0  0  0  0  0  0
   -1.1841   -0.8641    0.0080 C   0  0  0  1  0  3  0  0  0  0  0  0
    0.0021   -0.0041    0.0020 C   0  0  0  1  0  3  0  0  0  0  0  0
    1.7355    1.8136   -0.0048 C   0  0  0  1  0  3  0  0  0  0  0  0
    2.5419    3.0449   -0.0059 C   0  0  0  1  0  3  0  0  0  0  0  0
    3.5166    5.3434   -0.0024 C   0  0  0  1  0  3  0  0  0  0  0  0
    4.4287    4.2800   -0.0160 C   0  0  0  1  0  3  0  0  0  0  0  0
    1.2960   -0.4468   -0.0127 C   0  0  0  1  0  3  0  0  0  0  0  0
    2.2391    0.5427   -0.0164 C   0  0  0  1  0  3  0  0  0  0  0  0
    3.9719    6.6603    0.0010 C   0  0  0  1  0  3  0  0  0  0  0  0
    5.8090    4.5821   -0.0259 C   0  0  0  1  0  3  0  0  0  0  0  0
    5.3236    6.9225   -0.0092 C   0  0  0  1  0  3  0  0  0  0  0  0
    6.2340    5.8751   -0.0217 C   0  0  0  1  0  3  0  0  0  0  0  0
   -3.2669   -2.1720    0.4941 H   0  0  0  1  0  1  0  0  0  0  0  0
   -5.0717   -1.2322    1.5877 H   0  0  0  1  0  1  0  0  0  0  0  0
   -4.4935    0.4025    1.1275 H   0  0  0  1  0  1  0  0  0  0  0  0
   -6.3416    0.4414   -0.2915 H   0  0  0  1  0  1  0  0  0  0  0  0
   -6.5430   -1.3353   -0.2134 H   0  0  0  1  0  1  0  0  0  0  0  0
    1.5525   -1.4959   -0.0205 H   0  0  0  1  0  1  0  0  0  0  0  0
    3.2992    0.3366   -0.0280 H   0  0  0  1  0  1  0  0  0  0  0  0
    3.2640    7.4759    0.0112 H   0  0  0  1  0  1  0  0  0  0  0  0
    6.5327    3.7805   -0.0365 H   0  0  0  1  0  1  0  0  0  0  0  0
    5.6754    7.9436   -0.0066 H   0  0  0  1  0  1  0  0  0  0  0  0
    7.2926    6.0886   -0.0290 H   0  0  0  1  0  1  0  0  0  0  0  0
  1 13  1  0  0  0  0
  1 14  1  0  0  0  0
  2 15  1  0  0  0  0
  2 16  1  0  0  0  0
  3 10  1  0  0  0  0
  3 11  1  0  0  0  0
  4  8  1  0  0  0  0
  4 12  1  0  0  0  0
  5 11  2  0  0  0  0
  6 12  2  0  0  0  0
  7 15  2  0  0  0  0
  7 17  1  0  0  0  0
  8  9  1  0  0  0  0
  8 11  1  0  0  0  0
  8 24  1  0  0  0  0
  9 10  1  0  0  0  0
  9 25  1  0  0  0  0
  9 26  1  0  0  0  0
 10 27  1  0  0  0  0
 10 28  1  0  0  0  0
 12 13  1  0  0  0  0
 13 18  2  0  0  0  0
 14 15  1  0  0  0  0
 14 19  2  0  0  0  0
 16 17  1  0  0  0  0
 16 20  2  0  0  0  0
 17 21  2  0  0  0  0
 18 19  1  0  0  0  0
 18 29  1  0  0  0  0
 19 30  1  0  0  0  0
 20 22  1  0  0  0  0
 20 31  1  0  0  0  0
 21 23  1  0  0  0  0
 21 32  1  0  0  0  0
 22 23  2  0  0  0  0
 22 33  1  0  0  0  0
 23 34  1  0  0  0  0
M  END
> <Activity>
1.976

> <Mapped(file=504701.csv.activities,property=Cached(PUBCHEM_COMPOUND_CID))>
1.976

> <PUBCHEM_ATOM_DEF_STEREO_COUNT>
0

> <PUBCHEM_ATOM_UDEF_STEREO_COUNT>
1

> <PUBCHEM_BONDANNOTATIONS>
1  13  8
1  14  8
13  18  8
14  19  8
16  17  8
16  20  8
17  21  8
18  19  8
2  15  8
2  16  8
20  22  8
21  23  8
22  23  8
8  4  3
7  15  8
7  17  8

> <PUBCHEM_BOND_DEF_STEREO_COUNT>
0

> <PUBCHEM_BOND_UDEF_STEREO_COUNT>
0

> <PUBCHEM_CACTVS_COMPLEXITY>
489

> <PUBCHEM_CACTVS_HBOND_ACCEPTOR>
6

> <PUBCHEM_CACTVS_HBOND_DONOR>
0

> <PUBCHEM_CACTVS_ROTATABLE_BOND>
4

> <PUBCHEM_CACTVS_SUBSKEYS>
AAADccB6OABgAAAAAAAAAAAAAAAAAWJEgAAwAAAAAAAAAFgB/AAAHgQAAAAACByh1gIwybIIFAisASTyTAKD8KBlCjhImD1wbNgJJrLgtZ2GMQhlwAHq6YeaSAAAAAAAAAAAAQAAAAAAAAACAAAAAAAAAA==

> <PUBCHEM_CACTVS_TAUTO_COUNT>
2

> <PUBCHEM_CACTVS_TPSA>
122

> <PUBCHEM_COMPONENT_COUNT>
1

> <PUBCHEM_COMPOUND_CANONICALIZED>
1

> <PUBCHEM_COMPOUND_CID>
2997660

> <PUBCHEM_COORDINATE_TYPE>
1
5
255

> <PUBCHEM_EXACT_MASS>
345.01295

> <PUBCHEM_HEAVY_ATOM_COUNT>
23

> <PUBCHEM_ISOTOPIC_ATOM_COUNT>
0

> <PUBCHEM_IUPAC_CAS_NAME>
5-(1,3-benzothiazol-2-yl)-2-thiophenecarboxylic acid (2-oxo-3-oxolanyl) ester

> <PUBCHEM_IUPAC_INCHI>
InChI=1S/C16H11NO4S2/c18-15-10(7-8-20-15)21-16(19)13-6-5-12(22-13)14-17-9-3-1-2-4-11(9)23-14/h1-6,10H,7-8H2

> <PUBCHEM_IUPAC_INCHIKEY>
AKUDASUHMBZVPZ-UHFFFAOYSA-N

> <PUBCHEM_IUPAC_NAME>
(2-oxooxolan-3-yl) 5-(1,3-benzothiazol-2-yl)thiophene-2-carboxylate

> <PUBCHEM_IUPAC_OPENEYE_NAME>
(2-oxotetrahydrofuran-3-yl) 5-(1,3-benzothiazol-2-yl)thiophene-2-carboxylate

> <PUBCHEM_IUPAC_SYSTEMATIC_NAME>
(2-oxidanylideneoxolan-3-yl) 5-(1,3-benzothiazol-2-yl)thiophene-2-carboxylate

> <PUBCHEM_IUPAC_TRADITIONAL_NAME>
5-(1,3-benzothiazol-2-yl)thiophene-2-carboxylic acid (2-ketotetrahydrofuran-3-yl) ester

> <PUBCHEM_MOLECULAR_FORMULA>
C16H11NO4S2

> <PUBCHEM_MOLECULAR_WEIGHT>
345.39284

> <PUBCHEM_MONOISOTOPIC_WEIGHT>
345.01295

> <PUBCHEM_OPENEYE_CAN_SMILES>
C1COC(=O)C1OC(=O)C2=CC=C(S2)C3=NC4=CC=CC=C4S3

> <PUBCHEM_OPENEYE_ISO_SMILES>
C1COC(=O)C1OC(=O)C2=CC=C(S2)C3=NC4=CC=CC=C4S3

> <PUBCHEM_TOTAL_CHARGE>
0

> <PUBCHEM_XLOGP3_AA>
4

$$$$
Written by BCL::WriteToMDL,16007609
MBcorina  10171218483D 1   1.00000     0.00000 
CORINA 3.49 0026  01.06.2011
 59 61  0  0  0  0  0  0  0  0999 V2000
   -0.1980    1.5314    0.1464 S   0  0  0  1  0  4  0  0  0  0  0  0
   -2.7033    2.6276    2.9065 O   0  0  0  1  0  2  0  0  0  0  0  0
   -0.2997    0.1241    0.3148 O   0  0  0  1  0  1  0  0  0  0  0  0
    1.0391    2.2300    0.1732 O   0  0  0  1  0  1  0  0  0  0  0  0
    0.9638    1.6274   -3.1400 O   0  0  0  1  0  1  0  0  0  0  0  0
   -4.6810   -1.5421   -3.4476 O   0  0  0  1  0  2  0  0  0  0  0  0
   -0.9002    1.8797   -1.3124 N   0  0  0  1  0  3  0  0  0  0  0  0
    1.0638    3.7347   -3.8265 N   0  0  0  1  0  3  0  0  0  0  0  0
   -2.0553    3.6463    2.8385 N   0  0  0  1  0  2  0  0  0  0  0  0
   -0.5195    3.0947   -2.0371 C   0  0  0  1  0  4  0  0  0  0  0  0
   -1.2059    2.2562    1.3967 C   0  0  0  1  0  3  0  0  0  0  0  0
   -1.8572    1.0136   -1.8529 C   0  0  0  1  0  3  0  0  0  0  0  0
    0.5557    2.7651   -3.0402 C   0  0  0  1  0  3  0  0  0  0  0  0
   -2.2547    1.7001    2.0490 C   0  0  0  1  0  3  0  0  0  0  0  0
   -1.1065    3.5525    1.9521 C   0  0  0  1  0  3  0  0  0  0  0  0
    2.1091    3.4144   -4.8017 C   0  0  0  1  0  4  0  0  0  0  0  0
    2.5067    4.6832   -5.5585 C   0  0  0  1  0  4  0  0  0  0  0  0
   -3.1435    1.4709   -2.1070 C   0  0  0  1  0  3  0  0  0  0  0  0
   -1.5196   -0.3023   -2.1407 C   0  0  0  1  0  3  0  0  0  0  0  0
    3.5819    4.3537   -6.5617 C   0  0  0  1  0  3  0  0  0  0  0  0
   -2.8077    0.3124    1.8503 C   0  0  0  1  0  4  0  0  0  0  0  0
   -0.1018    4.6155    1.5893 C   0  0  0  1  0  4  0  0  0  0  0  0
   -4.0873    0.6155   -2.6409 C   0  0  0  1  0  3  0  0  0  0  0  0
   -2.4646   -1.1563   -2.6745 C   0  0  0  1  0  3  0  0  0  0  0  0
    3.2367    3.9740   -7.8455 C   0  0  0  1  0  3  0  0  0  0  0  0
   -3.7507   -0.7002   -2.9227 C   0  0  0  1  0  3  0  0  0  0  0  0
    4.9133    4.4365   -6.2000 C   0  0  0  1  0  3  0  0  0  0  0  0
    4.2228    3.6717   -8.7655 C   0  0  0  1  0  3  0  0  0  0  0  0
    5.8998    4.1341   -7.1203 C   0  0  0  1  0  3  0  0  0  0  0  0
    5.5545    3.7494   -8.4021 C   0  0  0  1  0  3  0  0  0  0  0  0
    3.8465    3.2568  -10.1645 C   0  0  0  1  0  4  0  0  0  0  0  0
   -4.2656   -2.8834   -3.7132 C   0  0  0  1  0  4  0  0  0  0  0  0
   -1.3900    3.4960   -2.5561 H   0  0  0  1  0  1  0  0  0  0  0  0
   -0.1435    3.8357   -1.3317 H   0  0  0  1  0  1  0  0  0  0  0  0
    2.9795    3.0131   -4.2827 H   0  0  0  1  0  1  0  0  0  0  0  0
    1.7331    2.6733   -5.5071 H   0  0  0  1  0  1  0  0  0  0  0  0
    1.6362    5.0845   -6.0775 H   0  0  0  1  0  1  0  0  0  0  0  0
    2.8827    5.4243   -4.8531 H   0  0  0  1  0  1  0  0  0  0  0  0
    0.7374    4.6447   -3.7467 H   0  0  0  1  0  1  0  0  0  0  0  0
   -3.4059    2.4952   -1.8869 H   0  0  0  1  0  1  0  0  0  0  0  0
   -0.5182   -0.6576   -1.9475 H   0  0  0  1  0  1  0  0  0  0  0  0
   -3.6526    0.1584    2.5216 H   0  0  0  1  0  1  0  0  0  0  0  0
   -3.1381    0.1973    0.8180 H   0  0  0  1  0  1  0  0  0  0  0  0
   -2.0323   -0.4223    2.0677 H   0  0  0  1  0  1  0  0  0  0  0  0
    0.7792    4.5141    2.2230 H   0  0  0  1  0  1  0  0  0  0  0  0
    0.1869    4.5011    0.5445 H   0  0  0  1  0  1  0  0  0  0  0  0
   -0.5450    5.6002    1.7381 H   0  0  0  1  0  1  0  0  0  0  0  0
   -5.0877    0.9711   -2.8386 H   0  0  0  1  0  1  0  0  0  0  0  0
   -2.2022   -2.1797   -2.8984 H   0  0  0  1  0  1  0  0  0  0  0  0
    2.1964    3.9132   -8.1293 H   0  0  0  1  0  1  0  0  0  0  0  0
    5.1831    4.7377   -5.1985 H   0  0  0  1  0  1  0  0  0  0  0  0
    6.9401    4.1992   -6.8377 H   0  0  0  1  0  1  0  0  0  0  0  0
    6.3251    3.5129   -9.1209 H   0  0  0  1  0  1  0  0  0  0  0  0
    3.7793    4.1401  -10.7997 H   0  0  0  1  0  1  0  0  0  0  0  0
    4.6056    2.5819  -10.5599 H   0  0  0  1  0  1  0  0  0  0  0  0
    2.8825    2.7485  -10.1459 H   0  0  0  1  0  1  0  0  0  0  0  0
   -3.4426   -2.8741   -4.4278 H   0  0  0  1  0  1  0  0  0  0  0  0
   -3.9364   -3.3522   -2.7859 H   0  0  0  1  0  1  0  0  0  0  0  0
   -5.1011   -3.4469   -4.1285 H   0  0  0  1  0  1  0  0  0  0  0  0
  1  3  2  0  0  0  0
  1  4  2  0  0  0  0
  1  7  1  0  0  0  0
  1 11  1  0  0  0  0
  2  9  1  0  0  0  0
  2 14  1  0  0  0  0
  5 13  2  0  0  0  0
  6 26  1  0  0  0  0
  6 32  1  0  0  0  0
  7 10  1  0  0  0  0
  7 12  1  0  0  0  0
  8 13  1  0  0  0  0
  8 16  1  0  0  0  0
  8 39  1  0  0  0  0
  9 15  2  0  0  0  0
 10 13  1  0  0  0  0
 10 33  1  0  0  0  0
 10 34  1  0  0  0  0
 11 14  2  0  0  0  0
 11 15  1  0  0  0  0
 12 18  2  0  0  0  0
 12 19  1  0  0  0  0
 14 21  1  0  0  0  0
 15 22  1  0  0  0  0
 16 17  1  0  0  0  0
 16 35  1  0  0  0  0
 16 36  1  0  0  0  0
 17 20  1  0  0  0  0
 17 37  1  0  0  0  0
 17 38  1  0  0  0  0
 18 23  1  0  0  0  0
 18 40  1  0  0  0  0
 19 24  2  0  0  0  0
 19 41  1  0  0  0  0
 20 25  1  0  0  0  0
 20 27  2  0  0  0  0
 21 42  1  0  0  0  0
 21 43  1  0  0  0  0
 21 44  1  0  0  0  0
 22 45  1  0  0  0  0
 22 46  1  0  0  0  0
 22 47  1  0  0  0  0
 23 26  2  0  0  0  0
 23 48  1  0  0  0  0
 24 26  1  0  0  0  0
 24 49  1  0  0  0  0
 25 28  2  0  0  0  0
 25 50  1  0  0  0  0
 27 29  1  0  0  0  0
 27 51  1  0  0  0  0
 28 30  1  0  0  0  0
 28 31  1  0  0  0  0
 29 30  2  0  0  0  0
 29 52  1  0  0  0  0
 30 53  1  0  0  0  0
 31 54  1  0  0  0  0
 31 55  1  0  0  0  0
 31 56  1  0  0  0  0
 32 57  1  0  0  0  0
 32 58  1  0  0  0  0
 32 59  1  0  0  0  0
M  END
> <Activity>
0.65315

> <Mapped(file=504701.csv.activities,property=Cached(PUBCHEM_COMPOUND_CID))>
0.65315

> <PUBCHEM_ATOM_DEF_STEREO_COUNT>
0

> <PUBCHEM_ATOM_UDEF_STEREO_COUNT>
0

> <PUBCHEM_BONDANNOTATIONS>
11  14  8
11  15  8
12  18  8
12  19  8
18  23  8
19  24  8
2  14  8
2  9  8
20  25  8
20  27  8
23  26  8
24  26  8
25  28  8
27  29  8
28  30  8
29  30  8
9  15  8

> <PUBCHEM_BOND_DEF_STEREO_COUNT>
0

> <PUBCHEM_BOND_UDEF_STEREO_COUNT>
0

> <PUBCHEM_CACTVS_COMPLEXITY>
705

> <PUBCHEM_CACTVS_HBOND_ACCEPTOR>
7

> <PUBCHEM_CACTVS_HBOND_DONOR>
1

> <PUBCHEM_CACTVS_ROTATABLE_BOND>
9

> <PUBCHEM_CACTVS_SUBSKEYS>
AAADceB7OABAAAAAAAAAAAAAAAAAAWAAAAAwYAAAAAAAAAAB0AAAHgQUQAAADAzB3gYyx5LQBAKpA6VyUnDCCBAlIgAomLe+bNoMZjrEsbuUMahm1hnI6UewwMAOAEACAAAAAAAAgAQAAAAAAAAAAAAAAA==

> <PUBCHEM_CACTVS_TAUTO_COUNT>
2

> <PUBCHEM_CACTVS_TPSA>
110

> <PUBCHEM_COMPONENT_COUNT>
1

> <PUBCHEM_COMPOUND_CANONICALIZED>
1

> <PUBCHEM_COMPOUND_CID>
16007609

> <PUBCHEM_COORDINATE_TYPE>
1
5
255

> <PUBCHEM_EXACT_MASS>
457.167142

> <PUBCHEM_HEAVY_ATOM_COUNT>
32

> <PUBCHEM_ISOTOPIC_ATOM_COUNT>
0

> <PUBCHEM_IUPAC_CAS_NAME>
2-[N-[(3,5-dimethyl-4-isoxazolyl)sulfonyl]-4-methoxyanilino]-N-[2-(3-methylphenyl)ethyl]acetamide

> <PUBCHEM_IUPAC_INCHI>
InChI=1S/C23H27N3O5S/c1-16-6-5-7-19(14-16)12-13-24-22(27)15-26(20-8-10-21(30-4)11-9-20)32(28,29)23-17(2)25-31-18(23)3/h5-11,14H,12-13,15H2,1-4H3,(H,24,27)

> <PUBCHEM_IUPAC_INCHIKEY>
KBNSWEUJYCJTAD-UHFFFAOYSA-N

> <PUBCHEM_IUPAC_NAME>
2-[N-[(3,5-dimethyl-1,2-oxazol-4-yl)sulfonyl]-4-methoxyanilino]-N-[2-(3-methylphenyl)ethyl]acetamide

> <PUBCHEM_IUPAC_OPENEYE_NAME>
2-(N-(3,5-dimethylisoxazol-4-yl)sulfonyl-4-methoxy-anilino)-N-[2-(m-tolyl)ethyl]acetamide

> <PUBCHEM_IUPAC_SYSTEMATIC_NAME>
2-[(3,5-dimethyl-1,2-oxazol-4-yl)sulfonyl-(4-methoxyphenyl)amino]-N-[2-(3-methylphenyl)ethyl]ethanamide

> <PUBCHEM_IUPAC_TRADITIONAL_NAME>
2-(N-(3,5-dimethylisoxazol-4-yl)sulfonyl-4-methoxy-anilino)-N-[2-(m-tolyl)ethyl]acetamide

> <PUBCHEM_MOLECULAR_FORMULA>
C23H27N3O5S

> <PUBCHEM_MOLECULAR_WEIGHT>
457.54258

> <PUBCHEM_MONOISOTOPIC_WEIGHT>
457.167142

> <PUBCHEM_OPENEYE_CAN_SMILES>
CC1=CC(=CC=C1)CCNC(=O)CN(C2=CC=C(C=C2)OC)S(=O)(=O)C3=C(ON=C3C)C

> <PUBCHEM_OPENEYE_ISO_SMILES>
CC1=CC(=CC=C1)CCNC(=O)CN(C2=CC=C(C=C2)OC)S(=O)(=O)C3=C(ON=C3C)C

> <PUBCHEM_TOTAL_CHARGE>
0

> <PUBCHEM_XLOGP3_AA>
3.5

$$$$
Written by BCL::WriteToMDL,9637108
MBcorina  10171218483D 1   1.00000     0.00000 
CORINA 3.49 0026  01.06.2011
 43 46  0  0  0  0  0  0  0  0999 V2000
   -0.0216    1.7442    0.0116 S   0  0  0  1  0  2  0  0  0  0  0  0
    3.7531    2.9629   -0.0107 O   0  0  0  1  0  1  0  0  0  0  0  0
    1.9296    4.2332    0.0238 N   0  0  0  1  0  3  0  0  0  0  0  0
    2.6965    5.4056    0.0308 N   0  0  0  1  0  2  0  0  0  0  0  0
    1.5947   -1.9589   -0.0727 C   0  0  0  1  0  4  0  0  0  0  0  0
    0.5158   -2.7182    0.6906 C   0  0  0  1  0  4  0  0  0  0  0  0
    1.3068   -0.4667   -0.0312 C   0  0  0  1  0  3  0  0  0  0  0  0
   -0.8726   -2.2819    0.3155 C   0  0  0  1  0  3  0  0  0  0  0  0
    0.0021   -0.0041    0.0020 C   0  0  0  1  0  3  0  0  0  0  0  0
   -1.1393   -0.9437    0.0071 C   0  0  0  1  0  3  0  0  0  0  0  0
    2.2397    0.5360   -0.0259 C   0  0  0  1  0  3  0  0  0  0  0  0
   -1.9043   -3.1982    0.2760 C   0  0  0  1  0  3  0  0  0  0  0  0
    1.7360    1.8049   -0.0048 C   0  0  0  1  0  3  0  0  0  0  0  0
   -2.4296   -0.5308   -0.2997 C   0  0  0  1  0  3  0  0  0  0  0  0
   -3.1864   -2.7878   -0.0438 C   0  0  0  1  0  3  0  0  0  0  0  0
   -3.4528   -1.4596   -0.3245 C   0  0  0  1  0  3  0  0  0  0  0  0
    2.5375    3.0305    0.0025 C   0  0  0  1  0  3  0  0  0  0  0  0
    2.9183    7.7980    0.0586 C   0  0  0  1  0  3  0  0  0  0  0  0
    3.0527   10.1964    0.0870 C   0  0  0  1  0  3  0  0  0  0  0  0
    2.2915    9.0464    0.0807 C   0  0  0  1  0  3  0  0  0  0  0  0
    2.1111    6.5638    0.0513 C   0  0  0  1  0  3  0  0  0  0  0  0
    4.3129    7.7243    0.0377 C   0  0  0  1  0  3  0  0  0  0  0  0
    4.4341   10.1159    0.0614 C   0  0  0  1  0  3  0  0  0  0  0  0
    5.0615    8.8831    0.0390 C   0  0  0  1  0  3  0  0  0  0  0  0
    2.3786   11.5440    0.1103 C   0  0  0  1  0  4  0  0  0  0  0  0
    2.5654   -2.1531    0.3836 H   0  0  0  1  0  1  0  0  0  0  0  0
    1.6098   -2.2959   -1.1092 H   0  0  0  1  0  1  0  0  0  0  0  0
    0.6192   -3.7829    0.4812 H   0  0  0  1  0  1  0  0  0  0  0  0
    0.6595   -2.5557    1.7588 H   0  0  0  1  0  1  0  0  0  0  0  0
    3.3011    0.3366   -0.0373 H   0  0  0  1  0  1  0  0  0  0  0  0
   -1.7103   -4.2377    0.4952 H   0  0  0  1  0  1  0  0  0  0  0  0
   -2.6317    0.5077   -0.5167 H   0  0  0  1  0  1  0  0  0  0  0  0
   -3.9873   -3.5117   -0.0747 H   0  0  0  1  0  1  0  0  0  0  0  0
   -4.4593   -1.1487   -0.5625 H   0  0  0  1  0  1  0  0  0  0  0  0
    0.9612    4.2870    0.0343 H   0  0  0  1  0  1  0  0  0  0  0  0
    1.2135    9.1108    0.0925 H   0  0  0  1  0  1  0  0  0  0  0  0
    1.0328    6.6237    0.0630 H   0  0  0  1  0  1  0  0  0  0  0  0
    4.8040    6.7626    0.0209 H   0  0  0  1  0  1  0  0  0  0  0  0
    5.0252   11.0197    0.0664 H   0  0  0  1  0  1  0  0  0  0  0  0
    6.1400    8.8277    0.0228 H   0  0  0  1  0  1  0  0  0  0  0  0
    2.2265   11.8564    1.1434 H   0  0  0  1  0  1  0  0  0  0  0  0
    3.0067   12.2734   -0.4011 H   0  0  0  1  0  1  0  0  0  0  0  0
    1.4149   11.4770   -0.3946 H   0  0  0  1  0  1  0  0  0  0  0  0
  1  9  1  0  0  0  0
  1 13  1  0  0  0  0
  2 17  2  0  0  0  0
  3  4  1  0  0  0  0
  3 17  1  0  0  0  0
  3 35  1  0  0  0  0
  4 21  2  0  0  0  0
  5  6  1  0  0  0  0
  5  7  1  0  0  0  0
  5 26  1  0  0  0  0
  5 27  1  0  0  0  0
  6  8  1  0  0  0  0
  6 28  1  0  0  0  0
  6 29  1  0  0  0  0
  7  9  2  0  0  0  0
  7 11  1  0  0  0  0
  8 10  1  0  0  0  0
  8 12  2  0  0  0  0
  9 10  1  0  0  0  0
 10 14  2  0  0  0  0
 11 13  2  0  0  0  0
 11 30  1  0  0  0  0
 12 15  1  0  0  0  0
 12 31  1  0  0  0  0
 13 17  1  0  0  0  0
 14 16  1  0  0  0  0
 14 32  1  0  0  0  0
 15 16  2  0  0  0  0
 15 33  1  0  0  0  0
 16 34  1  0  0  0  0
 18 20  1  0  0  0  0
 18 21  1  0  0  0  0
 18 22  2  0  0  0  0
 19 20  2  0  0  0  0
 19 23  1  0  0  0  0
 19 25  1  0  0  0  0
 20 36  1  0  0  0  0
 21 37  1  0  0  0  0
 22 24  1  0  0  0  0
 22 38  1  0  0  0  0
 23 24  2  0  0  0  0
 23 39  1  0  0  0  0
 24 40  1  0  0  0  0
 25 41  1  0  0  0  0
 25 42  1  0  0  0  0
 25 43  1  0  0  0  0
M  END
> <Activity>
2.128

> <Mapped(file=504701.csv.activities,property=Cached(PUBCHEM_COMPOUND_CID))>
2.128

> <PUBCHEM_ATOM_DEF_STEREO_COUNT>
0

> <PUBCHEM_ATOM_UDEF_STEREO_COUNT>
0

> <PUBCHEM_BONDANNOTATIONS>
1  13  8
1  9  8
10  14  8
11  13  8
12  15  8
14  16  8
15  16  8
18  20  8
18  22  8
19  20  8
19  23  8
22  24  8
23  24  8
7  11  8
7  9  8
8  10  8
8  12  8

> <PUBCHEM_BOND_DEF_STEREO_COUNT>
1

> <PUBCHEM_BOND_UDEF_STEREO_COUNT>
0

> <PUBCHEM_CACTVS_COMPLEXITY>
508

> <PUBCHEM_CACTVS_HBOND_ACCEPTOR>
3

> <PUBCHEM_CACTVS_HBOND_DONOR>
1

> <PUBCHEM_CACTVS_ROTATABLE_BOND>
3

> <PUBCHEM_CACTVS_SUBSKEYS>
AAADceB7IABAAAAAAAAAAAAAAAAAASAAAAAwYMAAAAAAAEjB0AAAHgQYAAAADADB2AQyAYBiAAisAjFzEACTAIAkCBBaiBkgBNgIILKglRGAIQBgiAAoiYcYiMCOgAACAAAQAACAAAUAACgAAAAAAAAAAA==

> <PUBCHEM_CACTVS_TAUTO_COUNT>
2

> <PUBCHEM_CACTVS_TPSA>
69.7

> <PUBCHEM_COMPONENT_COUNT>
1

> <PUBCHEM_COMPOUND_CANONICALIZED>
1

> <PUBCHEM_COMPOUND_CID>
9637108

> <PUBCHEM_COORDINATE_TYPE>
1
5
255

> <PUBCHEM_EXACT_MASS>
346.113984

> <PUBCHEM_HEAVY_ATOM_COUNT>
25

> <PUBCHEM_ISOTOPIC_ATOM_COUNT>
0

> <PUBCHEM_IUPAC_CAS_NAME>
N-[(E)-(3-methylphenyl)methylideneamino]-4,5-dihydrobenzo[g][1]benzothiole-2-carboxamide

> <PUBCHEM_IUPAC_INCHI>
InChI=1S/C21H18N2OS/c1-14-5-4-6-15(11-14)13-22-23-21(24)19-12-17-10-9-16-7-2-3-8-18(16)20(17)25-19/h2-8,11-13H,9-10H2,1H3,(H,23,24)/b22-13+

> <PUBCHEM_IUPAC_INCHIKEY>
QLNBBJPZXKTDNN-LPYMAVHISA-N

> <PUBCHEM_IUPAC_NAME>
N-[(E)-(3-methylphenyl)methylideneamino]-4,5-dihydrobenzo[g][1]benzothiole-2-carboxamide

> <PUBCHEM_IUPAC_OPENEYE_NAME>
N-[(E)-m-tolylmethyleneamino]-4,5-dihydrobenzo[g]benzothiophene-2-carboxamide

> <PUBCHEM_IUPAC_SYSTEMATIC_NAME>
N-[(E)-(3-methylphenyl)methylideneamino]-4,5-dihydrobenzo[g][1]benzothiole-2-carboxamide

> <PUBCHEM_IUPAC_TRADITIONAL_NAME>
N-[(E)-(3-methylbenzylidene)amino]-4,5-dihydrobenzo[g]benzothiophene-2-carboxamide

> <PUBCHEM_MOLECULAR_FORMULA>
C21H18N2OS

> <PUBCHEM_MOLECULAR_WEIGHT>
346.44542

> <PUBCHEM_MONOISOTOPIC_WEIGHT>
346.113984

> <PUBCHEM_OPENEYE_CAN_SMILES>
CC1=CC=CC(=C1)C=NNC(=O)C2=CC3=C(S2)C4=CC=CC=C4CC3

> <PUBCHEM_OPENEYE_ISO_SMILES>
CC1=CC=CC(=C1)/C=N/NC(=O)C2=CC3=C(S2)C4=CC=CC=C4CC3

> <PUBCHEM_TOTAL_CHARGE>
0

> <PUBCHEM_XLOGP3_AA>
5.2

$$$$
Written by BCL::WriteToMDL,2305273
MBcorina  10171218483D 1   1.00000     0.00000 
CORINA 3.49 0026  01.06.2011
 45 47  0  0  0  0  0  0  0  0999 V2000
   -0.0198    1.6058    0.0109 P   0  0  0  1  0  4  0  0  0  0  0  0
    0.0021   -0.0041    0.0020 O   0  0  0  1  0  2  0  0  0  0  0  0
    1.4907    2.1630   -0.0006 O   0  0  0  1  0  2  0  0  0  0  0  0
   -0.7356    2.0960   -1.1881 O   0  0  0  1  0  1  0  0  0  0  0  0
   -0.7874    2.1347    1.3602 N   0  0  0  1  0  3  0  0  0  0  0  0
   -0.2936    1.7969    2.6223 C   0  0  0  1  0  3  0  0  0  0  0  0
   -0.9424    2.2440    3.7661 C   0  0  0  1  0  3  0  0  0  0  0  0
    0.8445    1.0083    2.7365 C   0  0  0  1  0  3  0  0  0  0  0  0
    1.3297    0.6759    3.9858 C   0  0  0  1  0  3  0  0  0  0  0  0
   -0.4517    1.9078    5.0126 C   0  0  0  1  0  3  0  0  0  0  0  0
    0.6839    1.1268    5.1227 C   0  0  0  1  0  3  0  0  0  0  0  0
   -2.1802    3.0954    3.6471 C   0  0  0  1  0  4  0  0  0  0  0  0
    2.5641   -0.1795    4.1106 C   0  0  0  1  0  4  0  0  0  0  0  0
    1.5841    3.5026   -0.2099 C   0  0  0  1  0  3  0  0  0  0  0  0
   -1.1925   -0.5714   -0.3110 C   0  0  0  1  0  3  0  0  0  0  0  0
    1.5709    4.3767    0.8673 C   0  0  0  1  0  3  0  0  0  0  0  0
   -1.5037   -0.8510   -1.6337 C   0  0  0  1  0  3  0  0  0  0  0  0
    1.6984    3.9978   -1.5007 C   0  0  0  1  0  3  0  0  0  0  0  0
   -2.1007   -0.8771    0.6923 C   0  0  0  1  0  3  0  0  0  0  0  0
    1.6660    5.7380    0.6519 C   0  0  0  1  0  3  0  0  0  0  0  0
   -2.7187   -1.4276   -1.9493 C   0  0  0  1  0  3  0  0  0  0  0  0
    1.7931    5.3599   -1.7108 C   0  0  0  1  0  3  0  0  0  0  0  0
   -3.3143   -1.4537    0.3715 C   0  0  0  1  0  3  0  0  0  0  0  0
   -3.6246   -1.7257   -0.9481 C   0  0  0  1  0  3  0  0  0  0  0  0
    1.7736    6.2294   -0.6359 C   0  0  0  1  0  3  0  0  0  0  0  0
   -1.5843    2.6820    1.2817 H   0  0  0  1  0  1  0  0  0  0  0  0
    1.3489    0.6553    1.8491 H   0  0  0  1  0  1  0  0  0  0  0  0
   -0.9557    2.2551    5.9024 H   0  0  0  1  0  1  0  0  0  0  0  0
    1.0651    0.8647    6.0986 H   0  0  0  1  0  1  0  0  0  0  0  0
   -3.0611    2.4539    3.6190 H   0  0  0  1  0  1  0  0  0  0  0  0
   -2.2450    3.7642    4.5054 H   0  0  0  1  0  1  0  0  0  0  0  0
   -2.1298    3.6838    2.7310 H   0  0  0  1  0  1  0  0  0  0  0  0
    3.4473    0.4588    4.1380 H   0  0  0  1  0  1  0  0  0  0  0  0
    2.5097   -0.7641    5.0290 H   0  0  0  1  0  1  0  0  0  0  0  0
    2.6282   -0.8520    3.2551 H   0  0  0  1  0  1  0  0  0  0  0  0
    1.4862    3.9934    1.8734 H   0  0  0  1  0  1  0  0  0  0  0  0
   -0.7967   -0.6177   -2.4162 H   0  0  0  1  0  1  0  0  0  0  0  0
    1.7137    3.3191   -2.3406 H   0  0  0  1  0  1  0  0  0  0  0  0
   -1.8588   -0.6648    1.7232 H   0  0  0  1  0  1  0  0  0  0  0  0
    1.6558    6.4189    1.4902 H   0  0  0  1  0  1  0  0  0  0  0  0
   -2.9613   -1.6454   -2.9789 H   0  0  0  1  0  1  0  0  0  0  0  0
    1.8821    5.7459   -2.7155 H   0  0  0  1  0  1  0  0  0  0  0  0
   -4.0216   -1.6918    1.1522 H   0  0  0  1  0  1  0  0  0  0  0  0
    1.8471    7.2940   -0.8023 H   0  0  0  1  0  1  0  0  0  0  0  0
   -4.5742   -2.1758   -1.1970 H   0  0  0  1  0  1  0  0  0  0  0  0
  1  2  1  0  0  0  0
  1  3  1  0  0  0  0
  1  4  2  0  0  0  0
  1  5  1  0  0  0  0
  2 15  1  0  0  0  0
  3 14  1  0  0  0  0
  5  6  1  0  0  0  0
  5 26  1  0  0  0  0
  6  7  2  0  0  0  0
  6  8  1  0  0  0  0
  7 10  1  0  0  0  0
  7 12  1  0  0  0  0
  8  9  2  0  0  0  0
  8 27  1  0  0  0  0
  9 11  1  0  0  0  0
  9 13  1  0  0  0  0
 10 11  2  0  0  0  0
 10 28  1  0  0  0  0
 11 29  1  0  0  0  0
 12 30  1  0  0  0  0
 12 31  1  0  0  0  0
 12 32  1  0  0  0  0
 13 33  1  0  0  0  0
 13 34  1  0  0  0  0
 13 35  1  0  0  0  0
 14 16  2  0  0  0  0
 14 18  1  0  0  0  0
 15 17  2  0  0  0  0
 15 19  1  0  0  0  0
 16 20  1  0  0  0  0
 16 36  1  0  0  0  0
 17 21  1  0  0  0  0
 17 37  1  0  0  0  0
 18 22  2  0  0  0  0
 18 38  1  0  0  0  0
 19 23  2  0  0  0  0
 19 39  1  0  0  0  0
 20 25  2  0  0  0  0
 20 40  1  0  0  0  0
 21 24  2  0  0  0  0
 21 41  1  0  0  0  0
 22 25  1  0  0  0  0
 22 42  1  0  0  0  0
 23 24  1  0  0  0  0
 23 43  1  0  0  0  0
 24 45  1  0  0  0  0
 25 44  1  0  0  0  0
M  END
> <Activity>
5.471

> <Mapped(file=504701.csv.activities,property=Cached(PUBCHEM_COMPOUND_CID))>
5.471

> <PUBCHEM_ATOM_DEF_STEREO_COUNT>
0

> <PUBCHEM_ATOM_UDEF_STEREO_COUNT>
0

> <PUBCHEM_BONDANNOTATIONS>
10  11  8
14  16  8
14  18  8
15  17  8
15  19  8
16  20  8
17  21  8
18  22  8
19  23  8
20  25  8
21  24  8
22  25  8
23  24  8
6  7  8
6  8  8
7  10  8
8  9  8
9  11  8

> <PUBCHEM_BOND_DEF_STEREO_COUNT>
0

> <PUBCHEM_BOND_UDEF_STEREO_COUNT>
0

> <PUBCHEM_CACTVS_COMPLEXITY>
422

> <PUBCHEM_CACTVS_HBOND_ACCEPTOR>
4

> <PUBCHEM_CACTVS_HBOND_DONOR>
1

> <PUBCHEM_CACTVS_ROTATABLE_BOND>
6

> <PUBCHEM_CACTVS_SUBSKEYS>
AAADceB6MAIAAAAAAAAAAAAAAAAAAAAAAAAwYMAAAAAAAAABUAAAHgAQgCAADAyBmAAyxoBAARCAQiRCQICCAAAgIgAIiAAGbIgIJiKAkZOAMABk0BEIyAeQwAAOQAAAQAACAACAAACAAAQAAAAAAAAAAA==

> <PUBCHEM_CACTVS_TAUTO_COUNT>
2

> <PUBCHEM_CACTVS_TPSA>
47.6

> <PUBCHEM_COMPONENT_COUNT>
1

> <PUBCHEM_COMPOUND_CANONICALIZED>
1

> <PUBCHEM_COMPOUND_CID>
2305273

> <PUBCHEM_COORDINATE_TYPE>
1
5
255

> <PUBCHEM_EXACT_MASS>
353.11808

> <PUBCHEM_HEAVY_ATOM_COUNT>
25

> <PUBCHEM_ISOTOPIC_ATOM_COUNT>
0

> <PUBCHEM_IUPAC_CAS_NAME>
N-diphenoxyphosphoryl-2,5-dimethylaniline

> <PUBCHEM_IUPAC_INCHI>
InChI=1S/C20H20NO3P/c1-16-13-14-17(2)20(15-16)21-25(22,23-18-9-5-3-6-10-18)24-19-11-7-4-8-12-19/h3-15H,1-2H3,(H,21,22)

> <PUBCHEM_IUPAC_INCHIKEY>
GMSMBWMTBLESFN-UHFFFAOYSA-N

> <PUBCHEM_IUPAC_NAME>
N-diphenoxyphosphoryl-2,5-dimethylaniline

> <PUBCHEM_IUPAC_OPENEYE_NAME>
N-diphenoxyphosphoryl-2,5-dimethyl-aniline

> <PUBCHEM_IUPAC_SYSTEMATIC_NAME>
N-diphenoxyphosphoryl-2,5-dimethyl-aniline

> <PUBCHEM_IUPAC_TRADITIONAL_NAME>
(2,5-dimethylphenyl)-diphenoxyphosphoryl-amine

> <PUBCHEM_MOLECULAR_FORMULA>
C20H20NO3P

> <PUBCHEM_MOLECULAR_WEIGHT>
353.351462

> <PUBCHEM_MONOISOTOPIC_WEIGHT>
353.11808

> <PUBCHEM_OPENEYE_CAN_SMILES>
CC1=CC(=C(C=C1)C)NP(=O)(OC2=CC=CC=C2)OC3=CC=CC=C3

> <PUBCHEM_OPENEYE_ISO_SMILES>
CC1=CC(=C(C=C1)C)NP(=O)(OC2=CC=CC=C2)OC3=CC=CC=C3

> <PUBCHEM_TOTAL_CHARGE>
0

> <PUBCHEM_XLOGP3_AA>
5.7

$$$$
Written by BCL::WriteToMDL,16332146
MBcorina  10171218483D 1   1.00000     0.00000 
CORINA 3.49 0026  01.06.2011
 60 63  0  0  0  0  0  0  0  0999 V2000
    0.3745    1.2300    0.2498 S   0  0  0  1  0  4  0  0  0  0  0  0
   -1.4476    7.1958    9.1482 O   0  0  0  1  0  2  0  0  0  0  0  0
   -3.7138    1.2728    5.5584 O   0  0  0  1  0  1  0  0  0  0  0  0
    0.9768   -0.0517    0.3666 O   0  0  0  1  0  1  0  0  0  0  0  0
    1.1192    2.4233    0.0482 O   0  0  0  1  0  1  0  0  0  0  0  0
   -1.3879    4.6406    8.0621 N   0  0  0  1  0  3  0  0  0  0  0  0
   -2.5822    3.1174    6.0574 N   0  0  0  1  0  3  0  0  0  0  0  0
   -0.6978    1.1298   -1.0083 N   0  0  0  1  0  3  0  0  0  0  0  0
   -2.2668    3.5258    8.4400 C   0  0  0  1  0  4  0  0  0  0  0  0
   -0.6191    4.3258    6.8505 C   0  0  0  1  0  4  0  0  0  0  0  0
   -3.2977    3.2936    7.3303 C   0  0  0  1  0  4  0  0  0  0  0  0
   -1.5824    4.1264    5.6757 C   0  0  0  1  0  4  0  0  0  0  0  0
   -0.5387    4.9902    9.1183 C   0  0  0  1  0  3  0  0  0  0  0  0
   -2.8358    2.0593    5.2620 C   0  0  0  1  0  3  0  0  0  0  0  0
   -0.5813    6.2765    9.6526 C   0  0  0  1  0  3  0  0  0  0  0  0
   -2.0459    1.8553    4.0290 C   0  0  0  1  0  3  0  0  0  0  0  0
    0.3433    4.0556    9.6398 C   0  0  0  1  0  3  0  0  0  0  0  0
    0.2608    6.6167   10.6977 C   0  0  0  1  0  3  0  0  0  0  0  0
    1.1809    4.4033   10.6836 C   0  0  0  1  0  3  0  0  0  0  0  0
   -1.6466    0.5707    3.6569 C   0  0  0  1  0  3  0  0  0  0  0  0
   -1.7008    2.9459    3.2292 C   0  0  0  1  0  3  0  0  0  0  0  0
    1.1417    5.6809   11.2094 C   0  0  0  1  0  3  0  0  0  0  0  0
   -0.5669    1.4731    1.7193 C   0  0  0  1  0  3  0  0  0  0  0  0
   -0.9101    0.3872    2.5049 C   0  0  0  1  0  3  0  0  0  0  0  0
   -0.9640    2.7486    2.0797 C   0  0  0  1  0  3  0  0  0  0  0  0
   -1.4360    8.4941    9.7452 C   0  0  0  1  0  4  0  0  0  0  0  0
   -2.4690    9.3839    9.0509 C   0  0  0  1  0  4  0  0  0  0  0  0
   -1.6408    0.1001   -1.0418 C   0  0  0  1  0  3  0  0  0  0  0  0
   -2.9696    0.3823   -1.3322 C   0  0  0  1  0  3  0  0  0  0  0  0
   -1.2510   -1.2093   -0.7905 C   0  0  0  1  0  3  0  0  0  0  0  0
   -3.8995   -0.6383   -1.3645 C   0  0  0  1  0  3  0  0  0  0  0  0
   -2.1860   -2.2251   -0.8244 C   0  0  0  1  0  3  0  0  0  0  0  0
   -3.5091   -1.9399   -1.1082 C   0  0  0  1  0  3  0  0  0  0  0  0
    0.0612    5.1478    6.6276 H   0  0  0  1  0  1  0  0  0  0  0  0
   -0.0462    3.4123    7.0103 H   0  0  0  1  0  1  0  0  0  0  0  0
   -1.6710    2.6235    8.5777 H   0  0  0  1  0  1  0  0  0  0  0  0
   -2.7815    3.7676    9.3699 H   0  0  0  1  0  1  0  0  0  0  0  0
   -1.0287    3.7811    4.8026 H   0  0  0  1  0  1  0  0  0  0  0  0
   -2.0814    5.0682    5.4473 H   0  0  0  1  0  1  0  0  0  0  0  0
   -3.9615    4.1554    7.2610 H   0  0  0  1  0  1  0  0  0  0  0  0
   -3.8779    2.3977    7.5512 H   0  0  0  1  0  1  0  0  0  0  0  0
    0.3758    3.0565    9.2311 H   0  0  0  1  0  1  0  0  0  0  0  0
    0.2301    7.6130   11.1134 H   0  0  0  1  0  1  0  0  0  0  0  0
    1.8674    3.6747   11.0890 H   0  0  0  1  0  1  0  0  0  0  0  0
   -1.9136   -0.2778    4.2695 H   0  0  0  1  0  1  0  0  0  0  0  0
   -2.0105    3.9419    3.5092 H   0  0  0  1  0  1  0  0  0  0  0  0
    1.7977    5.9481   12.0246 H   0  0  0  1  0  1  0  0  0  0  0  0
   -0.6005   -0.6063    2.2159 H   0  0  0  1  0  1  0  0  0  0  0  0
   -0.6963    3.5916    1.4599 H   0  0  0  1  0  1  0  0  0  0  0  0
   -1.6822    8.4095   10.8037 H   0  0  0  1  0  1  0  0  0  0  0  0
   -0.4451    8.9351    9.6368 H   0  0  0  1  0  1  0  0  0  0  0  0
   -0.6709    1.7863   -1.7219 H   0  0  0  1  0  1  0  0  0  0  0  0
   -2.2228    9.4685    7.9925 H   0  0  0  1  0  1  0  0  0  0  0  0
   -3.4599    8.9429    9.1594 H   0  0  0  1  0  1  0  0  0  0  0  0
   -2.4602   10.3742    9.5063 H   0  0  0  1  0  1  0  0  0  0  0  0
   -3.2752    1.3986   -1.5321 H   0  0  0  1  0  1  0  0  0  0  0  0
   -0.2178   -1.4327   -0.5691 H   0  0  0  1  0  1  0  0  0  0  0  0
   -4.9328   -0.4196   -1.5899 H   0  0  0  1  0  1  0  0  0  0  0  0
   -1.8836   -3.2434   -0.6294 H   0  0  0  1  0  1  0  0  0  0  0  0
   -4.2383   -2.7361   -1.1341 H   0  0  0  1  0  1  0  0  0  0  0  0
  1  4  2  0  0  0  0
  1  5  2  0  0  0  0
  1  8  1  0  0  0  0
  1 23  1  0  0  0  0
  2 15  1  0  0  0  0
  2 26  1  0  0  0  0
  3 14  2  0  0  0  0
  6  9  1  0  0  0  0
  6 10  1  0  0  0  0
  6 13  1  0  0  0  0
  7 11  1  0  0  0  0
  7 12  1  0  0  0  0
  7 14  1  0  0  0  0
  8 28  1  0  0  0  0
  8 52  1  0  0  0  0
  9 11  1  0  0  0  0
  9 36  1  0  0  0  0
  9 37  1  0  0  0  0
 10 12  1  0  0  0  0
 10 34  1  0  0  0  0
 10 35  1  0  0  0  0
 11 40  1  0  0  0  0
 11 41  1  0  0  0  0
 12 38  1  0  0  0  0
 12 39  1  0  0  0  0
 13 15  1  0  0  0  0
 13 17  2  0  0  0  0
 14 16  1  0  0  0  0
 15 18  2  0  0  0  0
 16 20  2  0  0  0  0
 16 21  1  0  0  0  0
 17 19  1  0  0  0  0
 17 42  1  0  0  0  0
 18 22  1  0  0  0  0
 18 43  1  0  0  0  0
 19 22  2  0  0  0  0
 19 44  1  0  0  0  0
 20 24  1  0  0  0  0
 20 45  1  0  0  0  0
 21 25  2  0  0  0  0
 21 46  1  0  0  0  0
 22 47  1  0  0  0  0
 23 24  2  0  0  0  0
 23 25  1  0  0  0  0
 24 48  1  0  0  0  0
 25 49  1  0  0  0  0
 26 27  1  0  0  0  0
 26 50  1  0  0  0  0
 26 51  1  0  0  0  0
 27 53  1  0  0  0  0
 27 54  1  0  0  0  0
 27 55  1  0  0  0  0
 28 29  2  0  0  0  0
 28 30  1  0  0  0  0
 29 31  1  0  0  0  0
 29 56  1  0  0  0  0
 30 32  2  0  0  0  0
 30 57  1  0  0  0  0
 31 33  2  0  0  0  0
 31 58  1  0  0  0  0
 32 33  1  0  0  0  0
 32 59  1  0  0  0  0
 33 60  1  0  0  0  0
M  END
> <Activity>
1.117

> <Mapped(file=504701.csv.activities,property=Cached(PUBCHEM_COMPOUND_CID))>
1.117

> <PUBCHEM_ATOM_DEF_STEREO_COUNT>
0

> <PUBCHEM_ATOM_UDEF_STEREO_COUNT>
0

> <PUBCHEM_BONDANNOTATIONS>
13  15  8
13  17  8
15  18  8
16  20  8
16  21  8
17  19  8
18  22  8
19  22  8
20  24  8
21  25  8
23  24  8
23  25  8
28  29  8
28  30  8
29  31  8
30  32  8
31  33  8
32  33  8

> <PUBCHEM_BOND_DEF_STEREO_COUNT>
0

> <PUBCHEM_BOND_UDEF_STEREO_COUNT>
0

> <PUBCHEM_CACTVS_COMPLEXITY>
718

> <PUBCHEM_CACTVS_HBOND_ACCEPTOR>
6

> <PUBCHEM_CACTVS_HBOND_DONOR>
1

> <PUBCHEM_CACTVS_ROTATABLE_BOND>
7

> <PUBCHEM_CACTVS_SUBSKEYS>
AAADceB7OABAAAAAAAAAAAAAAAAAAAAAAAA8YMEAAAAAAAABUAAAHgQQQAAADAzh2AYyx4NABAKIAiVSUHDCCBAlIgAIiBkPbMgOZjLEtZuXOSjk1hHY6YeYyACOEAAAAAAAEAAgAAAAAAAgAAAAAAAAAA==

> <PUBCHEM_CACTVS_TAUTO_COUNT>
1

> <PUBCHEM_CACTVS_TPSA>
87.3

> <PUBCHEM_COMPONENT_COUNT>
1

> <PUBCHEM_COMPOUND_CANONICALIZED>
1

> <PUBCHEM_COMPOUND_CID>
16332146

> <PUBCHEM_COORDINATE_TYPE>
1
5
255

> <PUBCHEM_EXACT_MASS>
465.172227

> <PUBCHEM_HEAVY_ATOM_COUNT>
33

> <PUBCHEM_ISOTOPIC_ATOM_COUNT>
0

> <PUBCHEM_IUPAC_CAS_NAME>
4-[[4-(2-ethoxyphenyl)-1-piperazinyl]-oxomethyl]-N-phenylbenzenesulfonamide

> <PUBCHEM_IUPAC_INCHI>
InChI=1S/C25H27N3O4S/c1-2-32-24-11-7-6-10-23(24)27-16-18-28(19-17-27)25(29)20-12-14-22(15-13-20)33(30,31)26-21-8-4-3-5-9-21/h3-15,26H,2,16-19H2,1H3

> <PUBCHEM_IUPAC_INCHIKEY>
JDIGQIZGSQAEHX-UHFFFAOYSA-N

> <PUBCHEM_IUPAC_NAME>
4-[4-(2-ethoxyphenyl)piperazine-1-carbonyl]-N-phenylbenzenesulfonamide

> <PUBCHEM_IUPAC_OPENEYE_NAME>
4-[4-(2-ethoxyphenyl)piperazine-1-carbonyl]-N-phenyl-benzenesulfonamide

> <PUBCHEM_IUPAC_SYSTEMATIC_NAME>
4-[4-(2-ethoxyphenyl)piperazin-1-yl]carbonyl-N-phenyl-benzenesulfonamide

> <PUBCHEM_IUPAC_TRADITIONAL_NAME>
4-(4-o-phenetylpiperazine-1-carbonyl)-N-phenyl-benzenesulfonamide

> <PUBCHEM_MOLECULAR_FORMULA>
C25H27N3O4S

> <PUBCHEM_MOLECULAR_WEIGHT>
465.56458

> <PUBCHEM_MONOISOTOPIC_WEIGHT>
465.172227

> <PUBCHEM_OPENEYE_CAN_SMILES>
CCOC1=CC=CC=C1N2CCN(CC2)C(=O)C3=CC=C(C=C3)S(=O)(=O)NC4=CC=CC=C4

> <PUBCHEM_OPENEYE_ISO_SMILES>
CCOC1=CC=CC=C1N2CCN(CC2)C(=O)C3=CC=C(C=C3)S(=O)(=O)NC4=CC=CC=C4

> <PUBCHEM_TOTAL_CHARGE>
0

> <PUBCHEM_XLOGP3_AA>
3.8

$$$$
Written by BCL::WriteToMDL,3320490
MBcorina  10171218483D 1   1.00000     0.00000 
CORINA 3.49 0026  01.06.2011
 56 60  0  0  0  0  0  0  0  0999 V2000
   -1.0156    2.6422   -0.3044 S   0  0  0  1  0  4  0  0  0  0  0  0
   -1.2900    1.3635   -0.8601 O   0  0  0  1  0  1  0  0  0  0  0  0
    0.2609    3.2626   -0.3750 O   0  0  0  1  0  1  0  0  0  0  0  0
   -2.3624    6.4838   -2.7273 O   0  0  0  1  0  2  0  0  0  0  0  0
   -4.3776    1.9354    5.1714 O   0  0  0  1  0  1  0  0  0  0  0  0
   -2.0864    3.6950   -1.0024 N   0  0  0  1  0  3  0  0  0  0  0  0
   -3.5631    0.5498    3.6387 N   0  0  0  1  0  3  0  0  0  0  0  0
   -6.9265   -2.2149    6.2509 N   0  0  0  1  0  2  0  0  0  0  0  0
   -5.2582   -0.2287    5.2250 C   0  0  0  1  0  3  0  0  0  0  0  0
   -6.2378    0.0669    6.2709 C   0  0  0  1  0  3  0  0  0  0  0  0
   -1.4249    2.5396    1.4063 C   0  0  0  1  0  3  0  0  0  0  0  0
   -7.0574   -0.9854    6.7517 C   0  0  0  1  0  3  0  0  0  0  0  0
   -2.6499    1.5100    3.1924 C   0  0  0  1  0  3  0  0  0  0  0  0
   -6.0521   -2.5022    5.3102 C   0  0  0  1  0  3  0  0  0  0  0  0
   -5.1930   -1.5361    4.7647 C   0  0  0  1  0  3  0  0  0  0  0  0
   -2.3278    1.5902    1.8438 C   0  0  0  1  0  3  0  0  0  0  0  0
   -4.3737    0.8235    4.6801 C   0  0  0  1  0  3  0  0  0  0  0  0
   -2.0845    5.1073   -0.6130 C   0  0  0  1  0  4  0  0  0  0  0  0
   -0.8378    3.4058    2.3100 C   0  0  0  1  0  3  0  0  0  0  0  0
   -6.3785    1.3548    6.7982 C   0  0  0  1  0  3  0  0  0  0  0  0
   -5.9716   -3.8957    4.8096 C   0  0  0  1  0  3  0  0  0  0  0  0
   -2.0621    2.3852    4.0970 C   0  0  0  1  0  3  0  0  0  0  0  0
   -8.0018   -0.7078    7.7571 C   0  0  0  1  0  3  0  0  0  0  0  0
   -1.1561    3.3283    3.6538 C   0  0  0  1  0  3  0  0  0  0  0  0
   -2.8653    5.9080   -1.6231 C   0  0  0  1  0  3  0  0  0  0  0  0
   -7.3053    1.5868    7.7714 C   0  0  0  1  0  3  0  0  0  0  0  0
   -8.1126    0.5568    8.2483 C   0  0  0  1  0  3  0  0  0  0  0  0
   -6.8122   -4.8769    5.3331 C   0  0  0  1  0  3  0  0  0  0  0  0
   -5.0591   -4.2283    3.8096 C   0  0  0  1  0  3  0  0  0  0  0  0
   -4.1841    6.1676   -1.5714 C   0  0  0  1  0  3  0  0  0  0  0  0
   -6.7331   -6.1719    4.8630 C   0  0  0  1  0  3  0  0  0  0  0  0
   -4.9890   -5.5267    3.3473 C   0  0  0  1  0  3  0  0  0  0  0  0
   -5.8220   -6.4973    3.8742 C   0  0  0  1  0  3  0  0  0  0  0  0
   -4.4935    6.9451   -2.7110 C   0  0  0  1  0  3  0  0  0  0  0  0
   -3.3452    7.1141   -3.3909 C   0  0  0  1  0  3  0  0  0  0  0  0
   -4.4876   -1.8076    3.9933 H   0  0  0  1  0  1  0  0  0  0  0  0
   -2.7829    0.9112    1.1380 H   0  0  0  1  0  1  0  0  0  0  0  0
   -2.7150    3.3766   -1.6691 H   0  0  0  1  0  1  0  0  0  0  0  0
   -3.6132   -0.3133    3.1988 H   0  0  0  1  0  1  0  0  0  0  0  0
   -2.5446    5.2140    0.3693 H   0  0  0  1  0  1  0  0  0  0  0  0
   -1.0581    5.4723   -0.5750 H   0  0  0  1  0  1  0  0  0  0  0  0
   -0.1289    4.1443    1.9659 H   0  0  0  1  0  1  0  0  0  0  0  0
   -5.7574    2.1609    6.4364 H   0  0  0  1  0  1  0  0  0  0  0  0
   -2.3104    2.3254    5.1464 H   0  0  0  1  0  1  0  0  0  0  0  0
   -8.6363   -1.4948    8.1373 H   0  0  0  1  0  1  0  0  0  0  0  0
   -0.6952    4.0059    4.3572 H   0  0  0  1  0  1  0  0  0  0  0  0
   -7.4137    2.5813    8.1784 H   0  0  0  1  0  1  0  0  0  0  0  0
   -8.8391    0.7652    9.0197 H   0  0  0  1  0  1  0  0  0  0  0  0
   -7.5236   -4.6241    6.1053 H   0  0  0  1  0  1  0  0  0  0  0  0
   -4.4086   -3.4713    3.3973 H   0  0  0  1  0  1  0  0  0  0  0  0
   -4.8744    5.8437   -0.8065 H   0  0  0  1  0  1  0  0  0  0  0  0
   -7.3836   -6.9330    5.2681 H   0  0  0  1  0  1  0  0  0  0  0  0
   -4.2824   -5.7855    2.5726 H   0  0  0  1  0  1  0  0  0  0  0  0
   -5.7634   -7.5122    3.5096 H   0  0  0  1  0  1  0  0  0  0  0  0
   -5.4654    7.3292   -2.9836 H   0  0  0  1  0  1  0  0  0  0  0  0
   -3.2327    7.6635   -4.3139 H   0  0  0  1  0  1  0  0  0  0  0  0
  1  2  2  0  0  0  0
  1  3  2  0  0  0  0
  1  6  1  0  0  0  0
  1 11  1  0  0  0  0
  4 25  1  0  0  0  0
  4 35  1  0  0  0  0
  5 17  2  0  0  0  0
  6 18  1  0  0  0  0
  6 38  1  0  0  0  0
  7 13  1  0  0  0  0
  7 17  1  0  0  0  0
  7 39  1  0  0  0  0
  8 12  1  0  0  0  0
  8 14  2  0  0  0  0
  9 10  1  0  0  0  0
  9 15  2  0  0  0  0
  9 17  1  0  0  0  0
 10 12  1  0  0  0  0
 10 20  2  0  0  0  0
 11 16  1  0  0  0  0
 11 19  2  0  0  0  0
 12 23  2  0  0  0  0
 13 16  2  0  0  0  0
 13 22  1  0  0  0  0
 14 15  1  0  0  0  0
 14 21  1  0  0  0  0
 15 36  1  0  0  0  0
 16 37  1  0  0  0  0
 18 25  1  0  0  0  0
 18 40  1  0  0  0  0
 18 41  1  0  0  0  0
 19 24  1  0  0  0  0
 19 42  1  0  0  0  0
 20 26  1  0  0  0  0
 20 43  1  0  0  0  0
 21 28  2  0  0  0  0
 21 29  1  0  0  0  0
 22 24  2  0  0  0  0
 22 44  1  0  0  0  0
 23 27  1  0  0  0  0
 23 45  1  0  0  0  0
 24 46  1  0  0  0  0
 25 30  2  0  0  0  0
 26 27  2  0  0  0  0
 26 47  1  0  0  0  0
 27 48  1  0  0  0  0
 28 31  1  0  0  0  0
 28 49  1  0  0  0  0
 29 32  2  0  0  0  0
 29 50  1  0  0  0  0
 30 34  1  0  0  0  0
 30 51  1  0  0  0  0
 31 33  2  0  0  0  0
 31 52  1  0  0  0  0
 32 33  1  0  0  0  0
 32 53  1  0  0  0  0
 33 54  1  0  0  0  0
 34 35  2  0  0  0  0
 34 55  1  0  0  0  0
 35 56  1  0  0  0  0
M  END
> <Activity>
2.978

> <Mapped(file=504701.csv.activities,property=Cached(PUBCHEM_COMPOUND_CID))>
2.978

> <PUBCHEM_ATOM_DEF_STEREO_COUNT>
0

> <PUBCHEM_ATOM_UDEF_STEREO_COUNT>
0

> <PUBCHEM_BONDANNOTATIONS>
10  12  8
10  20  8
11  16  8
11  19  8
12  23  8
13  16  8
13  22  8
14  15  8
19  24  8
20  26  8
21  28  8
21  29  8
22  24  8
23  27  8
25  30  8
26  27  8
28  31  8
29  32  8
30  34  8
31  33  8
32  33  8
34  35  8
4  25  8
4  35  8
8  12  8
8  14  8
9  10  8
9  15  8

> <PUBCHEM_BOND_DEF_STEREO_COUNT>
0

> <PUBCHEM_BOND_UDEF_STEREO_COUNT>
0

> <PUBCHEM_CACTVS_COMPLEXITY>
810

> <PUBCHEM_CACTVS_HBOND_ACCEPTOR>
6

> <PUBCHEM_CACTVS_HBOND_DONOR>
2

> <PUBCHEM_CACTVS_ROTATABLE_BOND>
7

> <PUBCHEM_CACTVS_SUBSKEYS>
AAADceB7OABAAAAAAAAAAAAAAAAAASAAAAA8YMEAAAAAAACx/AAAHgQQQAAADAzh3gYwxfLIFEKoA61y1HDCiDAlIiAImLm2bNgOJvLEtZuHOSzk1BHI6YecmcCOgAAAACACAAAAAAAAQAQAAAAAAAAAAA==

> <PUBCHEM_CACTVS_TAUTO_COUNT>
2

> <PUBCHEM_CACTVS_TPSA>
110

> <PUBCHEM_COMPONENT_COUNT>
1

> <PUBCHEM_COMPOUND_CANONICALIZED>
1

> <PUBCHEM_COMPOUND_CID>
3320490

> <PUBCHEM_COORDINATE_TYPE>
1
5
255

> <PUBCHEM_EXACT_MASS>
483.125277

> <PUBCHEM_HEAVY_ATOM_COUNT>
35

> <PUBCHEM_ISOTOPIC_ATOM_COUNT>
0

> <PUBCHEM_IUPAC_CAS_NAME>
N-[3-(2-furanylmethylsulfamoyl)phenyl]-2-phenyl-4-quinolinecarboxamide

> <PUBCHEM_IUPAC_INCHI>
InChI=1S/C27H21N3O4S/c31-27(24-17-26(19-8-2-1-3-9-19)30-25-14-5-4-13-23(24)25)29-20-10-6-12-22(16-20)35(32,33)28-18-21-11-7-15-34-21/h1-17,28H,18H2,(H,29,31)

> <PUBCHEM_IUPAC_INCHIKEY>
RBWBPJCJKURJSA-UHFFFAOYSA-N

> <PUBCHEM_IUPAC_NAME>
N-[3-(furan-2-ylmethylsulfamoyl)phenyl]-2-phenylquinoline-4-carboxamide

> <PUBCHEM_IUPAC_OPENEYE_NAME>
N-[3-(2-furylmethylsulfamoyl)phenyl]-2-phenyl-quinoline-4-carboxamide

> <PUBCHEM_IUPAC_SYSTEMATIC_NAME>
N-[3-(furan-2-ylmethylsulfamoyl)phenyl]-2-phenyl-quinoline-4-carboxamide

> <PUBCHEM_IUPAC_TRADITIONAL_NAME>
N-[3-(2-furfurylsulfamoyl)phenyl]-2-phenyl-cinchoninamide

> <PUBCHEM_MOLECULAR_FORMULA>
C27H21N3O4S

> <PUBCHEM_MOLECULAR_WEIGHT>
483.53834

> <PUBCHEM_MONOISOTOPIC_WEIGHT>
483.125277

> <PUBCHEM_OPENEYE_CAN_SMILES>
C1=CC=C(C=C1)C2=NC3=CC=CC=C3C(=C2)C(=O)NC4=CC(=CC=C4)S(=O)(=O)NCC5=CC=CO5

> <PUBCHEM_OPENEYE_ISO_SMILES>
C1=CC=C(C=C1)C2=NC3=CC=CC=C3C(=C2)C(=O)NC4=CC(=CC=C4)S(=O)(=O)NCC5=CC=CO5

> <PUBCHEM_TOTAL_CHARGE>
0

> <PUBCHEM_XLOGP3_AA>
4.2

$$$$
Written by BCL::WriteToMDL,5389465
MBcorina  10171218483D 1   1.00000     0.00000 
CORINA 3.49 0026  01.06.2011
 43 46  0  0  0  0  0  0  0  0999 V2000
   -0.1159    1.6311    0.1078 O   0  0  0  1  0  2  0  0  0  0  0  0
   -7.8103   -2.4356    2.0346 O   0  0  0  1  0  1  0  0  0  0  0  0
   -2.4174   -0.1230   -0.3706 N   0  0  0  1  0  3  0  0  0  0  0  0
   -3.9877   -1.2563    0.9497 N   0  0  0  1  0  2  0  0  0  0  0  0
   -6.2551   -1.4710    0.3449 N   0  0  0  1  0  3  0  0  0  0  0  0
   -0.0402    0.1888    0.1122 C   0  0  0  1  0  4  0  0  0  0  0  0
    1.1004   -0.1436    1.0995 C   0  0  0  1  0  4  0  0  0  0  0  0
    1.9724    1.1319    1.1090 C   0  0  0  1  0  4  0  0  0  0  0  0
   -1.3596   -0.4123    0.6008 C   0  0  0  1  0  4  0  0  0  0  0  0
    1.2554    2.0840    0.1263 C   0  0  0  1  0  4  0  0  0  0  0  0
   -3.6930   -0.5645   -0.1451 C   0  0  0  1  0  3  0  0  0  0  0  0
   -4.7645   -0.2831   -1.1073 C   0  0  0  1  0  3  0  0  0  0  0  0
   -6.0587   -0.7626   -0.8217 C   0  0  0  1  0  3  0  0  0  0  0  0
   -5.2135   -1.6940    1.1909 C   0  0  0  1  0  3  0  0  0  0  0  0
   -4.5326    0.4370   -2.2800 C   0  0  0  1  0  3  0  0  0  0  0  0
   -7.0941   -0.5124   -1.7123 C   0  0  0  1  0  3  0  0  0  0  0  0
   -5.4591   -2.4514    2.4229 C   0  0  0  1  0  3  0  0  0  0  0  0
   -5.5662    0.6714   -3.1438 C   0  0  0  1  0  3  0  0  0  0  0  0
   -6.8425    0.2022   -2.8649 C   0  0  0  1  0  3  0  0  0  0  0  0
   -6.7789   -2.7965    2.7973 C   0  0  0  1  0  3  0  0  0  0  0  0
   -4.3891   -2.8443    3.2355 C   0  0  0  1  0  3  0  0  0  0  0  0
   -6.9919   -3.5206    3.9774 C   0  0  0  1  0  3  0  0  0  0  0  0
   -4.6263   -3.5546    4.3888 C   0  0  0  1  0  3  0  0  0  0  0  0
   -5.9229   -3.8892    4.7597 C   0  0  0  1  0  3  0  0  0  0  0  0
    0.2005   -0.1816   -0.8843 H   0  0  0  1  0  1  0  0  0  0  0  0
    0.6997   -0.3398    2.0940 H   0  0  0  1  0  1  0  0  0  0  0  0
    1.6768   -0.9976    0.7437 H   0  0  0  1  0  1  0  0  0  0  0  0
    2.0027    1.5663    2.1082 H   0  0  0  1  0  1  0  0  0  0  0  0
    2.9798    0.9085    0.7579 H   0  0  0  1  0  1  0  0  0  0  0  0
   -1.6225    0.0234    1.5647 H   0  0  0  1  0  1  0  0  0  0  0  0
   -1.2497   -1.4915    0.7076 H   0  0  0  1  0  1  0  0  0  0  0  0
    1.6948    2.0044   -0.8680 H   0  0  0  1  0  1  0  0  0  0  0  0
    1.3107    3.1118    0.4853 H   0  0  0  1  0  1  0  0  0  0  0  0
   -2.2137    0.3815   -1.1737 H   0  0  0  1  0  1  0  0  0  0  0  0
   -7.1373   -1.8105    0.5627 H   0  0  0  1  0  1  0  0  0  0  0  0
   -3.5429    0.8070   -2.5037 H   0  0  0  1  0  1  0  0  0  0  0  0
   -8.0898   -0.8752   -1.5040 H   0  0  0  1  0  1  0  0  0  0  0  0
   -5.3882    1.2285   -4.0517 H   0  0  0  1  0  1  0  0  0  0  0  0
   -7.6468    0.3973   -3.5587 H   0  0  0  1  0  1  0  0  0  0  0  0
   -3.3772   -2.5899    2.9564 H   0  0  0  1  0  1  0  0  0  0  0  0
   -7.9954   -3.7890    4.2729 H   0  0  0  1  0  1  0  0  0  0  0  0
   -3.7971   -3.8553    5.0121 H   0  0  0  1  0  1  0  0  0  0  0  0
   -6.0923   -4.4474    5.6686 H   0  0  0  1  0  1  0  0  0  0  0  0
  1  6  1  0  0  0  0
  1 10  1  0  0  0  0
  2 20  2  0  0  0  0
  3  9  1  0  0  0  0
  3 11  1  0  0  0  0
  3 34  1  0  0  0  0
  4 11  2  0  0  0  0
  4 14  1  0  0  0  0
  5 13  1  0  0  0  0
  5 14  1  0  0  0  0
  5 35  1  0  0  0  0
  6  7  1  0  0  0  0
  6  9  1  0  0  0  0
  6 25  1  0  0  0  0
  7  8  1  0  0  0  0
  7 26  1  0  0  0  0
  7 27  1  0  0  0  0
  8 10  1  0  0  0  0
  8 28  1  0  0  0  0
  8 29  1  0  0  0  0
  9 30  1  0  0  0  0
  9 31  1  0  0  0  0
 10 32  1  0  0  0  0
 10 33  1  0  0  0  0
 11 12  1  0  0  0  0
 12 13  1  0  0  0  0
 12 15  2  0  0  0  0
 13 16  2  0  0  0  0
 14 17  2  0  0  0  0
 15 18  1  0  0  0  0
 15 36  1  0  0  0  0
 16 19  1  0  0  0  0
 16 37  1  0  0  0  0
 17 20  1  0  0  0  0
 17 21  1  0  0  0  0
 18 19  2  0  0  0  0
 18 38  1  0  0  0  0
 19 39  1  0  0  0  0
 20 22  1  0  0  0  0
 21 23  2  0  0  0  0
 21 40  1  0  0  0  0
 22 24  2  0  0  0  0
 22 41  1  0  0  0  0
 23 24  1  0  0  0  0
 23 42  1  0  0  0  0
 24 43  1  0  0  0  0
M  END
> <Activity>
3.726

> <Mapped(file=504701.csv.activities,property=Cached(PUBCHEM_COMPOUND_CID))>
3.726

> <PUBCHEM_ATOM_DEF_STEREO_COUNT>
0

> <PUBCHEM_ATOM_UDEF_STEREO_COUNT>
1

> <PUBCHEM_BONDANNOTATIONS>
12  13  8
12  15  8
13  16  8
15  18  8
16  19  8
18  19  8
6  9  3

> <PUBCHEM_BOND_DEF_STEREO_COUNT>
1

> <PUBCHEM_BOND_UDEF_STEREO_COUNT>
0

> <PUBCHEM_CACTVS_COMPLEXITY>
633

> <PUBCHEM_CACTVS_HBOND_ACCEPTOR>
4

> <PUBCHEM_CACTVS_HBOND_DONOR>
2

> <PUBCHEM_CACTVS_ROTATABLE_BOND>
3

> <PUBCHEM_CACTVS_SUBSKEYS>
AAADceB7MAAAAAAAAAAAAAAAAAAAASAAAAAwQIAAAAAAAACBAAAAHgAQAAAADBzhmAYxwILABACoAqZyZACCAAEhAgAJiIEoZNiKIKLA2ZGHIAhkkALYyeeQkAIOAAAAAAACAAAAAAAAAAQAAAAAAAAAAA==

> <PUBCHEM_CACTVS_TAUTO_COUNT>
21

> <PUBCHEM_CACTVS_TPSA>
62.7

> <PUBCHEM_COMPONENT_COUNT>
1

> <PUBCHEM_COMPOUND_CANONICALIZED>
1

> <PUBCHEM_COMPOUND_CID>
5389465

> <PUBCHEM_COORDINATE_TYPE>
1
5
255

> <PUBCHEM_EXACT_MASS>
321.147727

> <PUBCHEM_HEAVY_ATOM_COUNT>
24

> <PUBCHEM_ISOTOPIC_ATOM_COUNT>
0

> <PUBCHEM_IUPAC_CAS_NAME>
(6E)-6-[4-(2-oxolanylmethylamino)-1H-quinazolin-2-ylidene]-1-cyclohexa-2,4-dienone

> <PUBCHEM_IUPAC_INCHI>
InChI=1S/C19H19N3O2/c23-17-10-4-2-8-15(17)19-21-16-9-3-1-7-14(16)18(22-19)20-12-13-6-5-11-24-13/h1-4,7-10,13,21H,5-6,11-12H2,(H,20,22)/b19-15+

> <PUBCHEM_IUPAC_INCHIKEY>
LDLZPTJYNCMBSD-XDJHFCHBSA-N

> <PUBCHEM_IUPAC_NAME>
(6E)-6-[4-(oxolan-2-ylmethylamino)-1H-quinazolin-2-ylidene]cyclohexa-2,4-dien-1-one

> <PUBCHEM_IUPAC_OPENEYE_NAME>
(6E)-6-[4-(tetrahydrofuran-2-ylmethylamino)-1H-quinazolin-2-ylidene]cyclohexa-2,4-dien-1-one

> <PUBCHEM_IUPAC_SYSTEMATIC_NAME>
(6E)-6-[4-(oxolan-2-ylmethylamino)-1H-quinazolin-2-ylidene]cyclohexa-2,4-dien-1-one

> <PUBCHEM_IUPAC_TRADITIONAL_NAME>
(6E)-6-[4-(tetrahydrofurfurylamino)-1H-quinazolin-2-ylidene]cyclohexa-2,4-dien-1-one

> <PUBCHEM_MOLECULAR_FORMULA>
C19H19N3O2

> <PUBCHEM_MOLECULAR_WEIGHT>
321.37306

> <PUBCHEM_MONOISOTOPIC_WEIGHT>
321.147727

> <PUBCHEM_OPENEYE_CAN_SMILES>
C1CC(OC1)CNC2=NC(=C3C=CC=CC3=O)NC4=CC=CC=C42

> <PUBCHEM_OPENEYE_ISO_SMILES>
C1CC(OC1)CNC2=N/C(=C/3\C=CC=CC3=O)/NC4=CC=CC=C42

> <PUBCHEM_TOTAL_CHARGE>
0

> <PUBCHEM_XLOGP3_AA>
2.5

$$$$
Written by BCL::WriteToMDL,9692483
MBcorina  10171218483D 1   1.00000     0.00000 
CORINA 3.49 0026  01.06.2011
 40 42  0  0  0  0  0  0  0  0999 V2000
   -9.7785   -2.8345   -0.0289 Br  0  0  0  1  0  1  0  0  0  0  0  0
   -0.0389    1.2937   -1.0003 O   0  0  0  1  0  2  0  0  0  0  0  0
   -5.4049   -0.8157   -0.4709 O   0  0  0  1  0  1  0  0  0  0  0  0
   -1.1992   -2.2914   -0.7499 N   0  0  0  1  0  3  0  0  0  0  0  0
   -2.4023   -2.7257   -0.6329 N   0  0  0  1  0  2  0  0  0  0  0  0
   -5.3089   -3.0332   -0.3832 N   0  0  0  1  0  3  0  0  0  0  0  0
   -6.7016   -3.1304   -0.2659 N   0  0  0  1  0  2  0  0  0  0  0  0
   -1.1999   -0.9271   -0.8085 C   0  0  0  1  0  3  0  0  0  0  0  0
   -0.0221   -0.0523   -0.9428 C   0  0  0  1  0  3  0  0  0  0  0  0
   -2.5077   -0.5291   -0.7188 C   0  0  0  1  0  3  0  0  0  0  0  0
    1.2729   -0.4633   -1.0309 C   0  0  0  1  0  3  0  0  0  0  0  0
    1.2182    1.7509   -1.1232 C   0  0  0  1  0  3  0  0  0  0  0  0
   -3.2557   -1.7206   -0.6064 C   0  0  0  1  0  3  0  0  0  0  0  0
    2.0603    0.6991   -1.1462 C   0  0  0  1  0  3  0  0  0  0  0  0
    1.6201    3.2001   -1.2200 C   0  0  0  1  0  4  0  0  0  0  0  0
   -4.7239   -1.8231   -0.4828 C   0  0  0  1  0  3  0  0  0  0  0  0
  -10.7452   -5.7127    0.3412 C   0  0  0  1  0  3  0  0  0  0  0  0
  -11.5083   -6.7336   -0.2341 C   0  0  0  1  0  3  0  0  0  0  0  0
  -11.3559   -4.7906    1.1970 C   0  0  0  1  0  3  0  0  0  0  0  0
   -9.3055   -5.6129    0.0523 C   0  0  0  1  0  3  0  0  0  0  0  0
  -12.8555   -6.8238    0.0459 C   0  0  0  1  0  3  0  0  0  0  0  0
  -12.7040   -4.8941    1.4672 C   0  0  0  1  0  3  0  0  0  0  0  0
  -13.4526   -5.9073    0.8939 C   0  0  0  1  0  3  0  0  0  0  0  0
   -8.7196   -4.4011   -0.0474 C   0  0  0  1  0  3  0  0  0  0  0  0
   -7.2670   -4.2997   -0.1697 C   0  0  0  1  0  3  0  0  0  0  0  0
   -2.8862    0.4823   -0.7311 H   0  0  0  1  0  1  0  0  0  0  0  0
    1.6279   -1.4832   -1.0154 H   0  0  0  1  0  1  0  0  0  0  0  0
   -0.4069   -2.8498   -0.7869 H   0  0  0  1  0  1  0  0  0  0  0  0
    3.1359    0.7397   -1.2358 H   0  0  0  1  0  1  0  0  0  0  0  0
    0.7302    3.8278   -1.1744 H   0  0  0  1  0  1  0  0  0  0  0  0
    2.2833    3.4493   -0.3916 H   0  0  0  1  0  1  0  0  0  0  0  0
    2.1376    3.3714   -2.1639 H   0  0  0  1  0  1  0  0  0  0  0  0
   -4.7657   -3.8368   -0.3927 H   0  0  0  1  0  1  0  0  0  0  0  0
  -11.0439   -7.4493   -0.8963 H   0  0  0  1  0  1  0  0  0  0  0  0
  -10.7730   -3.9996    1.6453 H   0  0  0  1  0  1  0  0  0  0  0  0
   -8.7178   -6.5094   -0.0798 H   0  0  0  1  0  1  0  0  0  0  0  0
  -13.4463   -7.6115   -0.3979 H   0  0  0  1  0  1  0  0  0  0  0  0
  -13.1771   -4.1829    2.1281 H   0  0  0  1  0  1  0  0  0  0  0  0
  -14.5082   -5.9830    1.1091 H   0  0  0  1  0  1  0  0  0  0  0  0
   -6.6622   -5.1945   -0.1803 H   0  0  0  1  0  1  0  0  0  0  0  0
  1 24  1  0  0  0  0
  2  9  1  0  0  0  0
  2 12  1  0  0  0  0
  3 16  2  0  0  0  0
  4  5  1  0  0  0  0
  4  8  1  0  0  0  0
  4 28  1  0  0  0  0
  5 13  2  0  0  0  0
  6  7  1  0  0  0  0
  6 16  1  0  0  0  0
  6 33  1  0  0  0  0
  7 25  2  0  0  0  0
  8  9  1  0  0  0  0
  8 10  2  0  0  0  0
  9 11  2  0  0  0  0
 10 13  1  0  0  0  0
 10 26  1  0  0  0  0
 11 14  1  0  0  0  0
 11 27  1  0  0  0  0
 12 14  2  0  0  0  0
 12 15  1  0  0  0  0
 13 16  1  0  0  0  0
 14 29  1  0  0  0  0
 15 30  1  0  0  0  0
 15 31  1  0  0  0  0
 15 32  1  0  0  0  0
 17 18  2  0  0  0  0
 17 19  1  0  0  0  0
 17 20  1  0  0  0  0
 18 21  1  0  0  0  0
 18 34  1  0  0  0  0
 19 22  2  0  0  0  0
 19 35  1  0  0  0  0
 20 24  2  0  0  0  0
 20 36  1  0  0  0  0
 21 23  2  0  0  0  0
 21 37  1  0  0  0  0
 22 23  1  0  0  0  0
 22 38  1  0  0  0  0
 23 39  1  0  0  0  0
 24 25  1  0  0  0  0
 25 40  1  0  0  0  0
M  END
> <Activity>
5.873

> <Mapped(file=504701.csv.activities,property=Cached(PUBCHEM_COMPOUND_CID))>
5.873

> <PUBCHEM_ATOM_DEF_STEREO_COUNT>
0

> <PUBCHEM_ATOM_UDEF_STEREO_COUNT>
0

> <PUBCHEM_BONDANNOTATIONS>
10  13  8
11  14  8
12  14  8
17  18  8
17  19  8
18  21  8
19  22  8
2  12  8
2  9  8
21  23  8
22  23  8
4  5  8
4  8  8
5  13  8
8  10  8
9  11  8

> <PUBCHEM_BOND_DEF_STEREO_COUNT>
2

> <PUBCHEM_BOND_UDEF_STEREO_COUNT>
0

> <PUBCHEM_CACTVS_COMPLEXITY>
519

> <PUBCHEM_CACTVS_HBOND_ACCEPTOR>
4

> <PUBCHEM_CACTVS_HBOND_DONOR>
2

> <PUBCHEM_CACTVS_ROTATABLE_BOND>
5

> <PUBCHEM_CACTVS_SUBSKEYS>
AAADccB7sAAAEAAAAAAAAAAAAAAAAWJAAAAwAAAAAAAAAAAB8AAAHgBYAAABjAzBngQyhJBjBECqA7VzUASSDAAmIgAauSG2bNgOZrKE9duDvSDk2BEI6Ye836H+AAAAAAAAAAAAAAAAAAAAAAAAAAAAAA==

> <PUBCHEM_CACTVS_TAUTO_COUNT>
11

> <PUBCHEM_CACTVS_TPSA>
83.3

> <PUBCHEM_COMPONENT_COUNT>
1

> <PUBCHEM_COMPOUND_CANONICALIZED>
1

> <PUBCHEM_COMPOUND_CID>
9692483

> <PUBCHEM_COORDINATE_TYPE>
1
5
255

> <PUBCHEM_EXACT_MASS>
398.037838

> <PUBCHEM_HEAVY_ATOM_COUNT>
25

> <PUBCHEM_ISOTOPIC_ATOM_COUNT>
0

> <PUBCHEM_IUPAC_CAS_NAME>
N-[(E)-[(Z)-2-bromo-3-phenylprop-2-enylidene]amino]-5-(5-methyl-2-furanyl)-1H-pyrazole-3-carboxamide

> <PUBCHEM_IUPAC_INCHI>
InChI=1S/C18H15BrN4O2/c1-12-7-8-17(25-12)15-10-16(22-21-15)18(24)23-20-11-14(19)9-13-5-3-2-4-6-13/h2-11H,1H3,(H,21,22)(H,23,24)/b14-9-,20-11+

> <PUBCHEM_IUPAC_INCHIKEY>
NECFKNBGKKRENB-ABMAFKSBSA-N

> <PUBCHEM_IUPAC_NAME>
N-[(E)-[(Z)-2-bromo-3-phenylprop-2-enylidene]amino]-5-(5-methylfuran-2-yl)-1H-pyrazole-3-carboxamide

> <PUBCHEM_IUPAC_OPENEYE_NAME>
N-[(E)-[(Z)-2-bromo-3-phenyl-prop-2-enylidene]amino]-5-(5-methyl-2-furyl)-1H-pyrazole-3-carboxamide

> <PUBCHEM_IUPAC_SYSTEMATIC_NAME>
N-[(E)-[(Z)-2-bromanyl-3-phenyl-prop-2-enylidene]amino]-5-(5-methylfuran-2-yl)-1H-pyrazole-3-carboxamide

> <PUBCHEM_IUPAC_TRADITIONAL_NAME>
N-[(E)-[(Z)-2-bromo-3-phenyl-prop-2-enylidene]amino]-5-(5-methyl-2-furyl)-1H-pyrazole-3-carboxamide

> <PUBCHEM_MOLECULAR_FORMULA>
C18H15BrN4O2

> <PUBCHEM_MOLECULAR_WEIGHT>
399.2413

> <PUBCHEM_MONOISOTOPIC_WEIGHT>
398.037838

> <PUBCHEM_OPENEYE_CAN_SMILES>
CC1=CC=C(O1)C2=CC(=NN2)C(=O)NN=CC(=CC3=CC=CC=C3)Br

> <PUBCHEM_OPENEYE_ISO_SMILES>
CC1=CC=C(O1)C2=CC(=NN2)C(=O)N/N=C/C(=C/C3=CC=CC=C3)/Br

> <PUBCHEM_TOTAL_CHARGE>
0

> <PUBCHEM_XLOGP3_AA>
3.9

$$$$
Written by BCL::WriteToMDL,44142359
MBcorina  10171218483D 1   1.00000     0.00000 
CORINA 3.49 0026  01.06.2011
 41 44  0  0  0  0  0  0  0  0999 V2000
    3.3479   -0.5525    1.0715 O   0  0  0  1  0  1  0  0  0  0  0  0
   -0.0166    1.3747    0.0096 N   0  0  0  1  0  3  0  0  0  0  0  0
   -2.2642   -9.5169   -1.6369 N   0  0  0  1  0  3  0  0  0  0  0  0
    0.0041    0.0013   -0.1116 C   0  0  0  1  0  3  0  0  0  0  0  0
    1.1440    2.1128    0.1162 C   0  0  0  1  0  3  0  0  0  0  0  0
    1.1774   -0.7210    0.1750 C   0  0  0  1  0  3  0  0  0  0  0  0
    2.3654    1.4825    0.4129 C   0  0  0  1  0  3  0  0  0  0  0  0
    2.3835    0.0186    0.5957 C   0  0  0  1  0  3  0  0  0  0  0  0
   -1.1399   -0.6842   -0.5195 C   0  0  0  1  0  3  0  0  0  0  0  0
    1.1933   -2.1088    0.0580 C   0  0  0  1  0  3  0  0  0  0  0  0
   -1.3063    2.0696    0.0194 C   0  0  0  1  0  4  0  0  0  0  0  0
    1.1196    3.4926   -0.0686 C   0  0  0  1  0  3  0  0  0  0  0  0
    3.5343    2.2354    0.5267 C   0  0  0  1  0  3  0  0  0  0  0  0
    0.0384   -2.7728   -0.3491 C   0  0  0  1  0  3  0  0  0  0  0  0
   -1.1239   -2.0429   -0.6365 C   0  0  0  1  0  3  0  0  0  0  0  0
    2.2825    4.2232    0.0442 C   0  0  0  1  0  3  0  0  0  0  0  0
    3.4858    3.5996    0.3418 C   0  0  0  1  0  3  0  0  0  0  0  0
    0.0383   -4.1993   -0.4743 C   0  0  0  1  0  2  0  0  0  0  0  0
    0.0380   -6.7954   -0.7022 C   0  0  0  1  0  3  0  0  0  0  0  0
    0.0382   -5.3688   -0.5770 C   0  0  0  1  0  2  0  0  0  0  0  0
   -1.1184   -7.4628   -1.1100 C   0  0  0  1  0  3  0  0  0  0  0  0
    1.1975   -7.5244   -0.4222 C   0  0  0  1  0  3  0  0  0  0  0  0
   -1.1099   -8.8439   -1.2292 C   0  0  0  1  0  3  0  0  0  0  0  0
    1.1943   -8.8984   -0.5442 C   0  0  0  1  0  3  0  0  0  0  0  0
    0.0471   -9.5595   -0.9426 C   0  0  0  1  0  3  0  0  0  0  0  0
   -2.0433   -0.1363   -0.7435 H   0  0  0  1  0  1  0  0  0  0  0  0
    2.0923   -2.6645    0.2804 H   0  0  0  1  0  1  0  0  0  0  0  0
   -2.0659    1.4197    0.4538 H   0  0  0  1  0  1  0  0  0  0  0  0
   -1.2240    2.9798    0.6135 H   0  0  0  1  0  1  0  0  0  0  0  0
   -1.5885    2.3264   -1.0016 H   0  0  0  1  0  1  0  0  0  0  0  0
    0.1896    3.9902   -0.3006 H   0  0  0  1  0  1  0  0  0  0  0  0
    4.4716    1.7517    0.7587 H   0  0  0  1  0  1  0  0  0  0  0  0
   -2.0160   -2.5622   -0.9540 H   0  0  0  1  0  1  0  0  0  0  0  0
    2.2572    5.2931   -0.1010 H   0  0  0  1  0  1  0  0  0  0  0  0
    4.3882    4.1864    0.4292 H   0  0  0  1  0  1  0  0  0  0  0  0
   -2.0164   -6.9052   -1.3315 H   0  0  0  1  0  1  0  0  0  0  0  0
    2.0957   -7.0119   -0.1107 H   0  0  0  1  0  1  0  0  0  0  0  0
    2.0911   -9.4599   -0.3278 H   0  0  0  1  0  1  0  0  0  0  0  0
    0.0511  -10.6354   -1.0359 H   0  0  0  1  0  1  0  0  0  0  0  0
   -3.0716   -9.0177   -1.8365 H   0  0  0  1  0  1  0  0  0  0  0  0
   -2.2584  -10.4832   -1.7203 H   0  0  0  1  0  1  0  0  0  0  0  0
  1  8  2  0  0  0  0
  2  4  1  0  0  0  0
  2  5  1  0  0  0  0
  2 11  1  0  0  0  0
  3 23  1  0  0  0  0
  3 40  1  0  0  0  0
  3 41  1  0  0  0  0
  4  6  2  0  0  0  0
  4  9  1  0  0  0  0
  5  7  1  0  0  0  0
  5 12  2  0  0  0  0
  6  8  1  0  0  0  0
  6 10  1  0  0  0  0
  7  8  1  0  0  0  0
  7 13  2  0  0  0  0
  9 15  2  0  0  0  0
  9 26  1  0  0  0  0
 10 14  2  0  0  0  0
 10 27  1  0  0  0  0
 11 28  1  0  0  0  0
 11 29  1  0  0  0  0
 11 30  1  0  0  0  0
 12 16  1  0  0  0  0
 12 31  1  0  0  0  0
 13 17  1  0  0  0  0
 13 32  1  0  0  0  0
 14 15  1  0  0  0  0
 14 18  1  0  0  0  0
 15 33  1  0  0  0  0
 16 17  2  0  0  0  0
 16 34  1  0  0  0  0
 17 35  1  0  0  0  0
 18 20  3  0  0  0  0
 19 20  1  0  0  0  0
 19 21  2  0  0  0  0
 19 22  1  0  0  0  0
 21 23  1  0  0  0  0
 21 36  1  0  0  0  0
 22 24  2  0  0  0  0
 22 37  1  0  0  0  0
 23 25  2  0  0  0  0
 24 25  1  0  0  0  0
 24 38  1  0  0  0  0
 25 39  1  0  0  0  0
M  END
> <Activity>
1.5

> <Mapped(file=504701.csv.activities,property=Cached(PUBCHEM_COMPOUND_CID))>
1.5

> <PUBCHEM_ATOM_DEF_STEREO_COUNT>
0

> <PUBCHEM_ATOM_UDEF_STEREO_COUNT>
0

> <PUBCHEM_BONDANNOTATIONS>
10  14  8
12  16  8
13  17  8
14  15  8
16  17  8
19  21  8
19  22  8
2  4  8
2  5  8
21  23  8
22  24  8
23  25  8
24  25  8
4  6  8
4  9  8
5  12  8
5  7  8
6  10  8
6  8  8
7  13  8
7  8  8
9  15  8

> <PUBCHEM_BOND_DEF_STEREO_COUNT>
0

> <PUBCHEM_BOND_UDEF_STEREO_COUNT>
0

> <PUBCHEM_CACTVS_COMPLEXITY>
573

> <PUBCHEM_CACTVS_HBOND_ACCEPTOR>
3

> <PUBCHEM_CACTVS_HBOND_DONOR>
1

> <PUBCHEM_CACTVS_ROTATABLE_BOND>
2

> <PUBCHEM_CACTVS_SUBSKEYS>
AAADceB7IAAAAAAAAAAAAAAAAAAAAAAAAAA8YMEAAAAAAACxUAAAHgAQAAAADAyBmAQywINAAADIEqRSQAiCAAAlAgAIiAEIZMgIIHrAlZGEIYhgkADIyccYiMCOCAACQAACAAAQAASAAAQAAAAAAAAAAA==

> <PUBCHEM_CACTVS_TAUTO_COUNT>
1

> <PUBCHEM_CACTVS_TPSA>
46.3

> <PUBCHEM_COMPONENT_COUNT>
1

> <PUBCHEM_COMPOUND_CANONICALIZED>
1

> <PUBCHEM_COMPOUND_CID>
44142359

> <PUBCHEM_COORDINATE_TYPE>
1
5
255

> <PUBCHEM_EXACT_MASS>
324.126263

> <PUBCHEM_HEAVY_ATOM_COUNT>
25

> <PUBCHEM_ISOTOPIC_ATOM_COUNT>
0

> <PUBCHEM_IUPAC_CAS_NAME>
2-[2-(3-aminophenyl)ethynyl]-10-methyl-9-acridinone

> <PUBCHEM_IUPAC_INCHI>
InChI=1S/C22H16N2O/c1-24-20-8-3-2-7-18(20)22(25)19-14-16(11-12-21(19)24)10-9-15-5-4-6-17(23)13-15/h2-8,11-14H,23H2,1H3

> <PUBCHEM_IUPAC_INCHIKEY>
QCIBTTGAPXYYPW-UHFFFAOYSA-N

> <PUBCHEM_IUPAC_NAME>
2-[2-(3-aminophenyl)ethynyl]-10-methylacridin-9-one

> <PUBCHEM_IUPAC_OPENEYE_NAME>
2-[2-(3-aminophenyl)ethynyl]-10-methyl-acridin-9-one

> <PUBCHEM_IUPAC_SYSTEMATIC_NAME>
2-[2-(3-aminophenyl)ethynyl]-10-methyl-acridin-9-one

> <PUBCHEM_IUPAC_TRADITIONAL_NAME>
2-[2-(3-aminophenyl)ethynyl]-10-methyl-acridin-9-one

> <PUBCHEM_MOLECULAR_FORMULA>
C22H16N2O

> <PUBCHEM_MOLECULAR_WEIGHT>
324.37524

> <PUBCHEM_MONOISOTOPIC_WEIGHT>
324.126263

> <PUBCHEM_OPENEYE_CAN_SMILES>
CN1C2=C(C=C(C=C2)C#CC3=CC(=CC=C3)N)C(=O)C4=CC=CC=C41

> <PUBCHEM_OPENEYE_ISO_SMILES>
CN1C2=C(C=C(C=C2)C#CC3=CC(=CC=C3)N)C(=O)C4=CC=CC=C41

> <PUBCHEM_TOTAL_CHARGE>
0

> <PUBCHEM_XLOGP3_AA>
4.5

$$$$
Written by BCL::WriteToMDL,1477883
MBcorina  10171218483D 1   1.00000     0.00000 
CORINA 3.49 0026  01.06.2011
 34 37  0  0  0  0  0  0  0  0999 V2000
   -8.0882    0.3774    0.1247 Cl  0  0  0  1  0  1  0  0  0  0  0  0
   -0.0169    1.3949    0.0097 N   0  0  0  1  0  3  0  0  0  0  0  0
   -1.6370    3.0982    0.0331 N   0  0  0  1  0  2  0  0  0  0  0  0
    0.0021   -0.0041    0.0020 N   0  0  0  1  0  2  0  0  0  0  0  0
    0.9828    2.3277    0.0052 C   0  0  0  1  0  3  0  0  0  0  0  0
    2.4861    2.1611   -0.0084 C   0  0  0  1  0  4  0  0  0  0  0  0
    3.0453    3.5330    0.4276 C   0  0  0  1  0  4  0  0  0  0  0  0
    0.6568    3.6421    0.0141 C   0  0  0  1  0  3  0  0  0  0  0  0
    1.9094    4.4908    0.0067 C   0  0  0  1  0  4  0  0  0  0  0  0
   -0.6972    4.0141    0.0284 C   0  0  0  1  0  3  0  0  0  0  0  0
   -1.3260    1.7985    0.0308 C   0  0  0  1  0  3  0  0  0  0  0  0
   -2.1076    0.6364    0.0365 C   0  0  0  1  0  3  0  0  0  0  0  0
   -1.0732    5.4734    0.0301 C   0  0  0  1  0  4  0  0  0  0  0  0
   -1.2302   -0.4526    0.0118 C   0  0  0  1  0  3  0  0  0  0  0  0
   -3.5876    0.5726    0.0581 C   0  0  0  1  0  3  0  0  0  0  0  0
   -4.2671   -0.2275   -0.8602 C   0  0  0  1  0  3  0  0  0  0  0  0
   -4.3062    1.3080    1.0005 C   0  0  0  1  0  3  0  0  0  0  0  0
   -5.6455   -0.2836   -0.8352 C   0  0  0  1  0  3  0  0  0  0  0  0
   -5.6843    1.2445    1.0163 C   0  0  0  1  0  3  0  0  0  0  0  0
   -6.3540    0.4526    0.0991 C   0  0  0  1  0  3  0  0  0  0  0  0
    2.7877    1.3875    0.6978 H   0  0  0  1  0  1  0  0  0  0  0  0
    2.8306    1.9135   -1.0124 H   0  0  0  1  0  1  0  0  0  0  0  0
    3.2018    3.5648    1.5059 H   0  0  0  1  0  1  0  0  0  0  0  0
    3.9675    3.7648   -0.1053 H   0  0  0  1  0  1  0  0  0  0  0  0
    1.8177    5.3073    0.7229 H   0  0  0  1  0  1  0  0  0  0  0  0
    2.0954    4.8824   -0.9934 H   0  0  0  1  0  1  0  0  0  0  0  0
   -2.1590    5.5689    0.0355 H   0  0  0  1  0  1  0  0  0  0  0  0
   -0.6619    5.9536    0.9180 H   0  0  0  1  0  1  0  0  0  0  0  0
   -0.6707    5.9534   -0.8619 H   0  0  0  1  0  1  0  0  0  0  0  0
   -1.5201   -1.4930    0.0092 H   0  0  0  1  0  1  0  0  0  0  0  0
   -3.7154   -0.8019   -1.5896 H   0  0  0  1  0  1  0  0  0  0  0  0
   -3.7848    1.9257    1.7167 H   0  0  0  1  0  1  0  0  0  0  0  0
   -6.1727   -0.9026   -1.5461 H   0  0  0  1  0  1  0  0  0  0  0  0
   -6.2417    1.8132    1.7459 H   0  0  0  1  0  1  0  0  0  0  0  0
  1 20  1  0  0  0  0
  2  4  1  0  0  0  0
  2  5  1  0  0  0  0
  2 11  1  0  0  0  0
  3 10  2  0  0  0  0
  3 11  1  0  0  0  0
  4 14  2  0  0  0  0
  5  6  1  0  0  0  0
  5  8  2  0  0  0  0
  6  7  1  0  0  0  0
  6 21  1  0  0  0  0
  6 22  1  0  0  0  0
  7  9  1  0  0  0  0
  7 23  1  0  0  0  0
  7 24  1  0  0  0  0
  8  9  1  0  0  0  0
  8 10  1  0  0  0  0
  9 25  1  0  0  0  0
  9 26  1  0  0  0  0
 10 13  1  0  0  0  0
 11 12  2  0  0  0  0
 12 14  1  0  0  0  0
 12 15  1  0  0  0  0
 13 27  1  0  0  0  0
 13 28  1  0  0  0  0
 13 29  1  0  0  0  0
 14 30  1  0  0  0  0
 15 16  2  0  0  0  0
 15 17  1  0  0  0  0
 16 18  1  0  0  0  0
 16 31  1  0  0  0  0
 17 19  2  0  0  0  0
 17 32  1  0  0  0  0
 18 20  2  0  0  0  0
 18 33  1  0  0  0  0
 19 20  1  0  0  0  0
 19 34  1  0  0  0  0
M  END
> <Activity>
4.592

> <Mapped(file=504701.csv.activities,property=Cached(PUBCHEM_COMPOUND_CID))>
4.592

> <PUBCHEM_ATOM_DEF_STEREO_COUNT>
0

> <PUBCHEM_ATOM_UDEF_STEREO_COUNT>
0

> <PUBCHEM_BONDANNOTATIONS>
11  12  8
12  14  8
15  16  8
15  17  8
16  18  8
17  19  8
18  20  8
19  20  8
2  11  8
2  4  8
2  5  8
3  10  8
3  11  8
4  14  8
5  8  8
8  10  8

> <PUBCHEM_BOND_DEF_STEREO_COUNT>
0

> <PUBCHEM_BOND_UDEF_STEREO_COUNT>
0

> <PUBCHEM_CACTVS_COMPLEXITY>
356

> <PUBCHEM_CACTVS_HBOND_ACCEPTOR>
1

> <PUBCHEM_CACTVS_HBOND_DONOR>
0

> <PUBCHEM_CACTVS_ROTATABLE_BOND>
1

> <PUBCHEM_CACTVS_SUBSKEYS>
AAADccB7AAAEAAAAAAAAAAAAAAAAAeIAAAA8QAAAAAAAAFgB8AAAHAIIAAAADArBHyQ/sJ4IEACiAzZnZACShCshhaAdmCAwRpiIKOLB29GEpAhoiALIyCcQgMAOhAAAAAAAAAAIAAAAAAAAAAAAAQAAAA==

> <PUBCHEM_CACTVS_TAUTO_COUNT>
1

> <PUBCHEM_CACTVS_TPSA>
30.2

> <PUBCHEM_COMPONENT_COUNT>
1

> <PUBCHEM_COMPOUND_CANONICALIZED>
1

> <PUBCHEM_COMPOUND_CID>
1477883

> <PUBCHEM_COORDINATE_TYPE>
1
5
255

> <PUBCHEM_EXACT_MASS>
283.087625

> <PUBCHEM_HEAVY_ATOM_COUNT>
20

> <PUBCHEM_ISOTOPIC_ATOM_COUNT>
0

> <PUBCHEM_IUPAC_INCHI>
InChI=1S/C16H14ClN3/c1-10-13-3-2-4-15(13)20-16(19-10)14(9-18-20)11-5-7-12(17)8-6-11/h5-9H,2-4H2,1H3

> <PUBCHEM_IUPAC_INCHIKEY>
LEFMWIRVZAQPMC-UHFFFAOYSA-N

> <PUBCHEM_MOLECULAR_FORMULA>
C16H14ClN3

> <PUBCHEM_MOLECULAR_WEIGHT>
283.75546

> <PUBCHEM_MONOISOTOPIC_WEIGHT>
283.087625

> <PUBCHEM_OPENEYE_CAN_SMILES>
CC1=NC2=C(C=NN2C3=C1CCC3)C4=CC=C(C=C4)Cl

> <PUBCHEM_OPENEYE_ISO_SMILES>
CC1=NC2=C(C=NN2C3=C1CCC3)C4=CC=C(C=C4)Cl

> <PUBCHEM_TOTAL_CHARGE>
0

> <PUBCHEM_XLOGP3_AA>
3.7

$$$$
Written by BCL::WriteToMDL,1093851
MBcorina  10171218483D 1   1.00000     0.00000 
CORINA 3.49 0026  01.06.2011
 36 38  0  0  0  0  0  0  0  0999 V2000
    0.0860    3.5891   -1.6316 Cl  0  0  0  1  0  1  0  0  0  0  0  0
    0.2193    1.2267    0.2893 O   0  0  0  1  0  2  0  0  0  0  0  0
   -1.1109   -4.7367   -1.0022 O   0  0  0  1  0  2  0  0  0  0  0  0
    2.8395   -2.3103   -0.1242 O   0  0  0  1  0  1  0  0  0  0  0  0
    0.6926   -2.8674   -0.0196 N   0  0  0  1  0  3  0  0  0  0  0  0
    0.1671    0.0216    0.2110 N   0  0  0  1  0  2  0  0  0  0  0  0
    1.0012   -4.2332   -0.0149 C   0  0  0  1  0  3  0  0  0  0  0  0
    2.5199   -6.0183    0.4932 C   0  0  0  1  0  3  0  0  0  0  0  0
    1.4859    1.6749    0.2353 C   0  0  0  1  0  3  0  0  0  0  0  0
    2.2177   -4.6698    0.4897 C   0  0  0  1  0  3  0  0  0  0  0  0
    1.9309    3.0831    0.3017 C   0  0  0  1  0  3  0  0  0  0  0  0
    1.3598   -0.5102    0.0955 C   0  0  0  1  0  3  0  0  0  0  0  0
    0.0853   -5.1580   -0.5119 C   0  0  0  1  0  3  0  0  0  0  0  0
    2.2806    0.5697    0.1075 C   0  0  0  1  0  3  0  0  0  0  0  0
    1.6825   -1.9528   -0.0234 C   0  0  0  1  0  3  0  0  0  0  0  0
    1.6127   -6.9350   -0.0055 C   0  0  0  1  0  3  0  0  0  0  0  0
    0.3962   -6.5081   -0.5047 C   0  0  0  1  0  3  0  0  0  0  0  0
    1.3423    4.0445   -0.5234 C   0  0  0  1  0  3  0  0  0  0  0  0
    2.9366    3.4590    1.1928 C   0  0  0  1  0  3  0  0  0  0  0  0
    3.8416   -6.4908    1.0417 C   0  0  0  1  0  4  0  0  0  0  0  0
    1.7628    5.3580   -0.4556 C   0  0  0  1  0  3  0  0  0  0  0  0
    3.3471    4.7751    1.2502 C   0  0  0  1  0  3  0  0  0  0  0  0
    2.7642    5.7218    0.4269 C   0  0  0  1  0  3  0  0  0  0  0  0
    2.9283   -3.9560    0.8795 H   0  0  0  1  0  1  0  0  0  0  0  0
   -0.2337   -2.5795   -0.0200 H   0  0  0  1  0  1  0  0  0  0  0  0
    3.3572    0.5282    0.0330 H   0  0  0  1  0  1  0  0  0  0  0  0
    1.8534   -7.9879   -0.0011 H   0  0  0  1  0  1  0  0  0  0  0  0
   -0.3120   -7.2273   -0.8890 H   0  0  0  1  0  1  0  0  0  0  0  0
    3.3926    2.7215    1.8366 H   0  0  0  1  0  1  0  0  0  0  0  0
    3.7401   -6.6966    2.1073 H   0  0  0  1  0  1  0  0  0  0  0  0
    4.1458   -7.4002    0.5234 H   0  0  0  1  0  1  0  0  0  0  0  0
    4.5949   -5.7175    0.8911 H   0  0  0  1  0  1  0  0  0  0  0  0
    1.3093    6.1027   -1.0929 H   0  0  0  1  0  1  0  0  0  0  0  0
    4.1255    5.0669    1.9397 H   0  0  0  1  0  1  0  0  0  0  0  0
    3.0898    6.7504    0.4759 H   0  0  0  1  0  1  0  0  0  0  0  0
   -1.0997   -4.5364   -1.9482 H   0  0  0  1  0  1  0  0  0  0  0  0
  1 18  1  0  0  0  0
  2  6  1  0  0  0  0
  2  9  1  0  0  0  0
  3 13  1  0  0  0  0
  3 36  1  0  0  0  0
  4 15  2  0  0  0  0
  5  7  1  0  0  0  0
  5 15  1  0  0  0  0
  5 25  1  0  0  0  0
  6 12  2  0  0  0  0
  7 10  1  0  0  0  0
  7 13  2  0  0  0  0
  8 10  2  0  0  0  0
  8 16  1  0  0  0  0
  8 20  1  0  0  0  0
  9 11  1  0  0  0  0
  9 14  2  0  0  0  0
 10 24  1  0  0  0  0
 11 18  1  0  0  0  0
 11 19  2  0  0  0  0
 12 14  1  0  0  0  0
 12 15  1  0  0  0  0
 13 17  1  0  0  0  0
 14 26  1  0  0  0  0
 16 17  2  0  0  0  0
 16 27  1  0  0  0  0
 17 28  1  0  0  0  0
 18 21  2  0  0  0  0
 19 22  1  0  0  0  0
 19 29  1  0  0  0  0
 20 30  1  0  0  0  0
 20 31  1  0  0  0  0
 20 32  1  0  0  0  0
 21 23  1  0  0  0  0
 21 33  1  0  0  0  0
 22 23  2  0  0  0  0
 22 34  1  0  0  0  0
 23 35  1  0  0  0  0
M  END
> <Activity>
7.227

> <Mapped(file=504701.csv.activities,property=Cached(PUBCHEM_COMPOUND_CID))>
7.227

> <PUBCHEM_ATOM_DEF_STEREO_COUNT>
0

> <PUBCHEM_ATOM_UDEF_STEREO_COUNT>
0

> <PUBCHEM_BONDANNOTATIONS>
11  18  8
11  19  8
12  14  8
13  17  8
16  17  8
18  21  8
19  22  8
2  6  8
2  9  8
21  23  8
22  23  8
6  12  8
7  10  8
7  13  8
8  10  8
8  16  8
9  14  8

> <PUBCHEM_BOND_DEF_STEREO_COUNT>
0

> <PUBCHEM_BOND_UDEF_STEREO_COUNT>
0

> <PUBCHEM_CACTVS_COMPLEXITY>
423

> <PUBCHEM_CACTVS_HBOND_ACCEPTOR>
4

> <PUBCHEM_CACTVS_HBOND_DONOR>
2

> <PUBCHEM_CACTVS_ROTATABLE_BOND>
3

> <PUBCHEM_CACTVS_SUBSKEYS>
AAADccB7MAAEAAAAAAAAAAAAAAAAAWAAAAAwYAAAAAAAAAAB0AAAHgIUCAAADA6BniAyxpLQAgCpA6VyUgCCAAAnJwAomCG3btoKZjrTl5OUcYhm1BnY3ce/yKCOIAAAQAABEABAAACAAAIgAAAAAAAAAA==

> <PUBCHEM_CACTVS_TAUTO_COUNT>
19

> <PUBCHEM_CACTVS_TPSA>
75.4

> <PUBCHEM_COMPONENT_COUNT>
1

> <PUBCHEM_COMPOUND_CANONICALIZED>
1

> <PUBCHEM_COMPOUND_CID>
1093851

> <PUBCHEM_COORDINATE_TYPE>
1
5
255

> <PUBCHEM_EXACT_MASS>
328.06147

> <PUBCHEM_HEAVY_ATOM_COUNT>
23

> <PUBCHEM_ISOTOPIC_ATOM_COUNT>
0

> <PUBCHEM_IUPAC_CAS_NAME>
5-(2-chlorophenyl)-N-(2-hydroxy-5-methylphenyl)-3-isoxazolecarboxamide

> <PUBCHEM_IUPAC_INCHI>
InChI=1S/C17H13ClN2O3/c1-10-6-7-15(21)13(8-10)19-17(22)14-9-16(23-20-14)11-4-2-3-5-12(11)18/h2-9,21H,1H3,(H,19,22)

> <PUBCHEM_IUPAC_INCHIKEY>
MOGPCFGJLJCFNU-UHFFFAOYSA-N

> <PUBCHEM_IUPAC_NAME>
5-(2-chlorophenyl)-N-(2-hydroxy-5-methylphenyl)-1,2-oxazole-3-carboxamide

> <PUBCHEM_IUPAC_OPENEYE_NAME>
5-(2-chlorophenyl)-N-(2-hydroxy-5-methyl-phenyl)isoxazole-3-carboxamide

> <PUBCHEM_IUPAC_SYSTEMATIC_NAME>
5-(2-chlorophenyl)-N-(5-methyl-2-oxidanyl-phenyl)-1,2-oxazole-3-carboxamide

> <PUBCHEM_IUPAC_TRADITIONAL_NAME>
5-(2-chlorophenyl)-N-(2-hydroxy-5-methyl-phenyl)isoxazole-3-carboxamide

> <PUBCHEM_MOLECULAR_FORMULA>
C17H13ClN2O3

> <PUBCHEM_MOLECULAR_WEIGHT>
328.74972

> <PUBCHEM_MONOISOTOPIC_WEIGHT>
328.06147

> <PUBCHEM_OPENEYE_CAN_SMILES>
CC1=CC(=C(C=C1)O)NC(=O)C2=NOC(=C2)C3=CC=CC=C3Cl

> <PUBCHEM_OPENEYE_ISO_SMILES>
CC1=CC(=C(C=C1)O)NC(=O)C2=NOC(=C2)C3=CC=CC=C3Cl

> <PUBCHEM_TOTAL_CHARGE>
0

> <PUBCHEM_XLOGP3_AA>
3.8

$$$$
Written by BCL::WriteToMDL,2207742
MBcorina  10171218483D 1   1.00000     0.00000 
CORINA 3.49 0026  01.06.2011
 44 45  0  0  0  0  0  0  0  0999 V2000
    0.1665    1.4478    0.0916 S   0  0  0  1  0  2  0  0  0  0  0  0
   -0.0894    3.9457    0.1446 S   0  0  0  1  0  1  0  0  0  0  0  0
    4.7705    0.4550    0.8308 O   0  0  0  1  0  2  0  0  0  0  0  0
    4.5223    0.5803   -1.3744 O   0  0  0  1  0  1  0  0  0  0  0  0
    2.4001    3.0322   -0.0046 N   0  0  0  1  0  3  0  0  0  0  0  0
    2.1530    5.3524   -0.0733 N   0  0  0  1  0  3  0  0  0  0  0  0
    1.8893    7.6764   -0.1409 N   0  0  0  1  0  2  0  0  0  0  0  0
    0.0262    6.3206    0.0467 N   0  0  0  1  0  2  0  0  0  0  0  0
    1.6975   -0.5738   -0.1469 C   0  0  0  1  0  3  0  0  0  0  0  0
    2.5454    0.5989   -0.1517 C   0  0  0  1  0  3  0  0  0  0  0  0
    2.2254   -1.9801   -0.2686 C   0  0  0  1  0  4  0  0  0  0  0  0
    0.4102   -0.2859   -0.0248 C   0  0  0  1  0  3  0  0  0  0  0  0
    1.8364    1.7673   -0.0283 C   0  0  0  1  0  3  0  0  0  0  0  0
    2.5224   -2.5357    1.1257 C   0  0  0  1  0  4  0  0  0  0  0  0
   -0.6956   -1.3092    0.0096 C   0  0  0  1  0  4  0  0  0  0  0  0
    4.0031    0.5446   -0.2749 C   0  0  0  1  0  3  0  0  0  0  0  0
    1.6083    4.1227    0.0129 C   0  0  0  1  0  3  0  0  0  0  0  0
    1.3374    6.4756   -0.0553 C   0  0  0  1  0  3  0  0  0  0  0  0
    1.1411    8.7671   -0.1271 C   0  0  0  1  0  3  0  0  0  0  0  0
   -0.7793    7.3696    0.0663 C   0  0  0  1  0  3  0  0  0  0  0  0
   -0.2352    8.6414   -0.0215 C   0  0  0  1  0  3  0  0  0  0  0  0
    6.2082    0.4055    0.6331 C   0  0  0  1  0  4  0  0  0  0  0  0
    1.7773   10.1298   -0.2245 C   0  0  0  1  0  4  0  0  0  0  0  0
   -2.2704    7.1842    0.1825 C   0  0  0  1  0  4  0  0  0  0  0  0
    1.4802   -2.6069   -0.7583 H   0  0  0  1  0  1  0  0  0  0  0  0
    3.1409   -1.9746   -0.8601 H   0  0  0  1  0  1  0  0  0  0  0  0
    2.9043   -3.5529    1.0377 H   0  0  0  1  0  1  0  0  0  0  0  0
    3.2677   -1.9090    1.6154 H   0  0  0  1  0  1  0  0  0  0  0  0
    1.6069   -2.5412    1.7172 H   0  0  0  1  0  1  0  0  0  0  0  0
   -1.6553   -0.8036    0.1163 H   0  0  0  1  0  1  0  0  0  0  0  0
   -0.6883   -1.8831   -0.9171 H   0  0  0  1  0  1  0  0  0  0  0  0
   -0.5428   -1.9809    0.8542 H   0  0  0  1  0  1  0  0  0  0  0  0
    3.3649    3.1332   -0.0005 H   0  0  0  1  0  1  0  0  0  0  0  0
    3.1149    5.4527   -0.1479 H   0  0  0  1  0  1  0  0  0  0  0  0
   -0.8698    9.5153   -0.0075 H   0  0  0  1  0  1  0  0  0  0  0  0
    6.7057    0.3343    1.6004 H   0  0  0  1  0  1  0  0  0  0  0  0
    6.4620   -0.4656    0.0291 H   0  0  0  1  0  1  0  0  0  0  0  0
    6.5360    1.3104    0.1216 H   0  0  0  1  0  1  0  0  0  0  0  0
    1.8559   10.4200   -1.2722 H   0  0  0  1  0  1  0  0  0  0  0  0
    1.1639   10.8561    0.3087 H   0  0  0  1  0  1  0  0  0  0  0  0
    2.7723   10.0988    0.2196 H   0  0  0  1  0  1  0  0  0  0  0  0
   -2.5548    7.1780    1.2348 H   0  0  0  1  0  1  0  0  0  0  0  0
   -2.7791    8.0028   -0.3265 H   0  0  0  1  0  1  0  0  0  0  0  0
   -2.5557    6.2376   -0.2765 H   0  0  0  1  0  1  0  0  0  0  0  0
  1 12  1  0  0  0  0
  1 13  1  0  0  0  0
  2 17  2  0  0  0  0
  3 16  1  0  0  0  0
  3 22  1  0  0  0  0
  4 16  2  0  0  0  0
  5 13  1  0  0  0  0
  5 17  1  0  0  0  0
  5 33  1  0  0  0  0
  6 17  1  0  0  0  0
  6 18  1  0  0  0  0
  6 34  1  0  0  0  0
  7 18  1  0  0  0  0
  7 19  2  0  0  0  0
  8 18  2  0  0  0  0
  8 20  1  0  0  0  0
  9 10  1  0  0  0  0
  9 11  1  0  0  0  0
  9 12  2  0  0  0  0
 10 13  2  0  0  0  0
 10 16  1  0  0  0  0
 11 14  1  0  0  0  0
 11 25  1  0  0  0  0
 11 26  1  0  0  0  0
 12 15  1  0  0  0  0
 14 27  1  0  0  0  0
 14 28  1  0  0  0  0
 14 29  1  0  0  0  0
 15 30  1  0  0  0  0
 15 31  1  0  0  0  0
 15 32  1  0  0  0  0
 19 21  1  0  0  0  0
 19 23  1  0  0  0  0
 20 21  2  0  0  0  0
 20 24  1  0  0  0  0
 21 35  1  0  0  0  0
 22 36  1  0  0  0  0
 22 37  1  0  0  0  0
 22 38  1  0  0  0  0
 23 39  1  0  0  0  0
 23 40  1  0  0  0  0
 23 41  1  0  0  0  0
 24 42  1  0  0  0  0
 24 43  1  0  0  0  0
 24 44  1  0  0  0  0
M  END
> <Activity>
2.231

> <Mapped(file=504701.csv.activities,property=Cached(PUBCHEM_COMPOUND_CID))>
2.231

> <PUBCHEM_ATOM_DEF_STEREO_COUNT>
0

> <PUBCHEM_ATOM_UDEF_STEREO_COUNT>
0

> <PUBCHEM_BONDANNOTATIONS>
1  12  8
1  13  8
10  13  8
19  21  8
20  21  8
7  18  8
7  19  8
8  18  8
8  20  8
9  10  8
9  12  8

> <PUBCHEM_BOND_DEF_STEREO_COUNT>
0

> <PUBCHEM_BOND_UDEF_STEREO_COUNT>
0

> <PUBCHEM_CACTVS_COMPLEXITY>
455

> <PUBCHEM_CACTVS_HBOND_ACCEPTOR>
4

> <PUBCHEM_CACTVS_HBOND_DONOR>
2

> <PUBCHEM_CACTVS_ROTATABLE_BOND>
5

> <PUBCHEM_CACTVS_SUBSKEYS>
AAADceB7sABgAAAAAAAAAAAAAAAAASAAAAAsAAAAAAAAAAAB4AAAHgQQAAAADAiB3gIzmZbIFAisAyTybACDgKllCrkBmDEwbNiILjrg/dmEFYhuwANo6WaYAAAOgAAAAAAAAAAAAAAAAAAAAAAAAAAAAA==

> <PUBCHEM_CACTVS_TAUTO_COUNT>
29

> <PUBCHEM_CACTVS_TPSA>
137

> <PUBCHEM_COMPONENT_COUNT>
1

> <PUBCHEM_COMPOUND_CANONICALIZED>
1

> <PUBCHEM_COMPOUND_CID>
2207742

> <PUBCHEM_COORDINATE_TYPE>
1
5
255

> <PUBCHEM_EXACT_MASS>
364.102768

> <PUBCHEM_HEAVY_ATOM_COUNT>
24

> <PUBCHEM_ISOTOPIC_ATOM_COUNT>
0

> <PUBCHEM_IUPAC_CAS_NAME>
2-[[[(4,6-dimethyl-2-pyrimidinyl)amino]-sulfanylidenemethyl]amino]-4-ethyl-5-methyl-3-thiophenecarboxylic acid methyl ester

> <PUBCHEM_IUPAC_INCHI>
InChI=1S/C16H20N4O2S2/c1-6-11-10(4)24-13(12(11)14(21)22-5)19-16(23)20-15-17-8(2)7-9(3)18-15/h7H,6H2,1-5H3,(H2,17,18,19,20,23)

> <PUBCHEM_IUPAC_INCHIKEY>
DSEPPZYBGDBBPB-UHFFFAOYSA-N

> <PUBCHEM_IUPAC_NAME>
methyl 2-[(4,6-dimethylpyrimidin-2-yl)carbamothioylamino]-4-ethyl-5-methylthiophene-3-carboxylate

> <PUBCHEM_IUPAC_OPENEYE_NAME>
methyl 2-[(4,6-dimethylpyrimidin-2-yl)carbamothioylamino]-4-ethyl-5-methyl-thiophene-3-carboxylate

> <PUBCHEM_IUPAC_SYSTEMATIC_NAME>
methyl 2-[(4,6-dimethylpyrimidin-2-yl)carbamothioylamino]-4-ethyl-5-methyl-thiophene-3-carboxylate

> <PUBCHEM_IUPAC_TRADITIONAL_NAME>
2-[(4,6-dimethylpyrimidin-2-yl)thiocarbamoylamino]-4-ethyl-5-methyl-thiophene-3-carboxylic acid methyl ester

> <PUBCHEM_MOLECULAR_FORMULA>
C16H20N4O2S2

> <PUBCHEM_MOLECULAR_WEIGHT>
364.4856

> <PUBCHEM_MONOISOTOPIC_WEIGHT>
364.102768

> <PUBCHEM_OPENEYE_CAN_SMILES>
CCC1=C(SC(=C1C(=O)OC)NC(=S)NC2=NC(=CC(=N2)C)C)C

> <PUBCHEM_OPENEYE_ISO_SMILES>
CCC1=C(SC(=C1C(=O)OC)NC(=S)NC2=NC(=CC(=N2)C)C)C

> <PUBCHEM_TOTAL_CHARGE>
0

> <PUBCHEM_XLOGP3_AA>
4.1

$$$$
Written by BCL::WriteToMDL,17577761
MBcorina  10171218483D 1   1.00000     0.00000 
CORINA 3.49 0026  01.06.2011
 42 45  0  0  0  0  0  0  0  0999 V2000
    1.0367   -1.7239   -4.4307 O   0  0  0  1  0  2  0  0  0  0  0  0
    2.7122   -1.1027   -2.3324 O   0  0  0  1  0  1  0  0  0  0  0  0
   -3.5513   -5.8697    1.0750 N   0  0  0  1  0  3  0  0  0  0  0  0
   -2.2216   -5.8299    1.5125 N   0  0  0  1  0  3  0  0  0  0  0  0
   -4.6910   -4.6769   -0.7675 N   0  0  0  1  0  2  0  0  0  0  0  0
   -5.6956   -3.5190   -2.5174 N   0  0  0  1  0  3  0  0  0  0  0  0
   -3.2158   -1.5077   -4.0171 N   0  0  0  1  0  1  0  0  0  0  0  0
   -2.3907   -4.4430   -0.2085 C   0  0  0  1  0  3  0  0  0  0  0  0
   -3.6740   -5.0131    0.0052 C   0  0  0  1  0  3  0  0  0  0  0  0
   -1.5296   -4.9758    0.7432 C   0  0  0  1  0  3  0  0  0  0  0  0
   -2.2228   -3.4804   -1.2979 C   0  0  0  1  0  3  0  0  0  0  0  0
   -3.3629   -3.1792   -2.0732 C   0  0  0  1  0  3  0  0  0  0  0  0
   -4.5737   -6.6482    1.6250 C   0  0  0  1  0  3  0  0  0  0  0  0
   -0.9209   -2.8528   -1.5729 C   0  0  0  1  0  3  0  0  0  0  0  0
   -0.0655   -4.6490    0.8872 C   0  0  0  1  0  4  0  0  0  0  0  0
   -4.5823   -3.8111   -1.7630 C   0  0  0  1  0  3  0  0  0  0  0  0
   -0.5417   -2.5757   -2.8944 C   0  0  0  1  0  3  0  0  0  0  0  0
   -0.0634   -2.5277   -0.5146 C   0  0  0  1  0  3  0  0  0  0  0  0
   -4.3108   -7.4791    2.7066 C   0  0  0  1  0  3  0  0  0  0  0  0
   -5.8562   -6.5882    1.0948 C   0  0  0  1  0  3  0  0  0  0  0  0
    0.6669   -1.9931   -3.1492 C   0  0  0  1  0  3  0  0  0  0  0  0
    1.1444   -1.9452   -0.7672 C   0  0  0  1  0  3  0  0  0  0  0  0
   -5.3234   -8.2466    3.2479 C   0  0  0  1  0  3  0  0  0  0  0  0
   -6.8642   -7.3583    1.6409 C   0  0  0  1  0  3  0  0  0  0  0  0
   -3.2809   -2.2471   -3.1572 C   0  0  0  1  0  2  0  0  0  0  0  0
    1.5289   -1.6723   -2.0855 C   0  0  0  1  0  3  0  0  0  0  0  0
   -6.5977   -8.1888    2.7140 C   0  0  0  1  0  3  0  0  0  0  0  0
   -1.8586   -6.3388    2.2543 H   0  0  0  1  0  1  0  0  0  0  0  0
    0.4560   -5.5017    1.3220 H   0  0  0  1  0  1  0  0  0  0  0  0
    0.3554   -4.4272   -0.0935 H   0  0  0  1  0  1  0  0  0  0  0  0
    0.0510   -3.7818    1.5371 H   0  0  0  1  0  1  0  0  0  0  0  0
   -1.2049   -2.8231   -3.7101 H   0  0  0  1  0  1  0  0  0  0  0  0
   -0.3587   -2.7376    0.5028 H   0  0  0  1  0  1  0  0  0  0  0  0
   -3.3156   -7.5253    3.1236 H   0  0  0  1  0  1  0  0  0  0  0  0
   -6.0650   -5.9398    0.2566 H   0  0  0  1  0  1  0  0  0  0  0  0
    1.8044   -1.6951    0.0503 H   0  0  0  1  0  1  0  0  0  0  0  0
   -6.5433   -3.9454   -2.3161 H   0  0  0  1  0  1  0  0  0  0  0  0
   -5.6326   -2.8868   -3.2503 H   0  0  0  1  0  1  0  0  0  0  0  0
   -5.1196   -8.8928    4.0889 H   0  0  0  1  0  1  0  0  0  0  0  0
   -7.8615   -7.3122    1.2291 H   0  0  0  1  0  1  0  0  0  0  0  0
   -7.3877   -8.7902    3.1390 H   0  0  0  1  0  1  0  0  0  0  0  0
    1.9079   -1.3119   -4.5103 H   0  0  0  1  0  1  0  0  0  0  0  0
  1 21  1  0  0  0  0
  1 42  1  0  0  0  0
  2 26  2  0  0  0  0
  3  4  1  0  0  0  0
  3  9  1  0  0  0  0
  3 13  1  0  0  0  0
  4 10  1  0  0  0  0
  4 28  1  0  0  0  0
  5  9  2  0  0  0  0
  5 16  1  0  0  0  0
  6 16  1  0  0  0  0
  6 37  1  0  0  0  0
  6 38  1  0  0  0  0
  7 25  3  0  0  0  0
  8  9  1  0  0  0  0
  8 10  2  0  0  0  0
  8 11  1  0  0  0  0
 10 15  1  0  0  0  0
 11 12  1  0  0  0  0
 11 14  2  0  0  0  0
 12 16  2  0  0  0  0
 12 25  1  0  0  0  0
 13 19  2  0  0  0  0
 13 20  1  0  0  0  0
 14 17  1  0  0  0  0
 14 18  1  0  0  0  0
 15 29  1  0  0  0  0
 15 30  1  0  0  0  0
 15 31  1  0  0  0  0
 17 21  2  0  0  0  0
 17 32  1  0  0  0  0
 18 22  2  0  0  0  0
 18 33  1  0  0  0  0
 19 23  1  0  0  0  0
 19 34  1  0  0  0  0
 20 24  2  0  0  0  0
 20 35  1  0  0  0  0
 21 26  1  0  0  0  0
 22 26  1  0  0  0  0
 22 36  1  0  0  0  0
 23 27  2  0  0  0  0
 23 39  1  0  0  0  0
 24 27  1  0  0  0  0
 24 40  1  0  0  0  0
 27 41  1  0  0  0  0
M  END
> <Activity>
9.342

> <Mapped(file=504701.csv.activities,property=Cached(PUBCHEM_COMPOUND_CID))>
9.342

> <PUBCHEM_ATOM_DEF_STEREO_COUNT>
0

> <PUBCHEM_ATOM_UDEF_STEREO_COUNT>
0

> <PUBCHEM_BONDANNOTATIONS>
11  12  8
12  16  8
13  19  8
13  20  8
19  23  8
20  24  8
23  27  8
24  27  8
5  16  8
5  9  8
8  11  8
8  9  8

> <PUBCHEM_BOND_DEF_STEREO_COUNT>
1

> <PUBCHEM_BOND_UDEF_STEREO_COUNT>
0

> <PUBCHEM_CACTVS_COMPLEXITY>
962

> <PUBCHEM_CACTVS_HBOND_ACCEPTOR>
6

> <PUBCHEM_CACTVS_HBOND_DONOR>
3

> <PUBCHEM_CACTVS_ROTATABLE_BOND>
1

> <PUBCHEM_CACTVS_SUBSKEYS>
AAADccB7sAAAAAAAAAAAAAAAAAAAAQAAAAAwQIAAAAAAAEABAAAAHgAYCAAADAyBkAAzwIJiAgC4BqZyZAKiBAEhIgAZqABgZNgIoCLAmZGEYAhg0ADIyY8QAAAAAAAAAAAAAAAAAAAAAAAAAAAAAAAAAA==

> <PUBCHEM_CACTVS_TAUTO_COUNT>
126

> <PUBCHEM_CACTVS_TPSA>
115

> <PUBCHEM_COMPONENT_COUNT>
1

> <PUBCHEM_COMPOUND_CANONICALIZED>
1

> <PUBCHEM_COMPOUND_CID>
17577761

> <PUBCHEM_COORDINATE_TYPE>
1
5
255

> <PUBCHEM_EXACT_MASS>
357.122575

> <PUBCHEM_HEAVY_ATOM_COUNT>
27

> <PUBCHEM_ISOTOPIC_ATOM_COUNT>
0

> <PUBCHEM_IUPAC_CAS_NAME>
(4Z)-6-amino-4-(3-hydroxy-4-oxo-1-cyclohexa-2,5-dienylidene)-3-methyl-1-phenyl-2H-pyrazolo[3,4-b]pyridine-5-carbonitrile

> <PUBCHEM_IUPAC_INCHI>
InChI=1S/C20H15N5O2/c1-11-17-18(12-7-8-15(26)16(27)9-12)14(10-21)19(22)23-20(17)25(24-11)13-5-3-2-4-6-13/h2-9,24,27H,22H2,1H3/b18-12+

> <PUBCHEM_IUPAC_INCHIKEY>
HSRXFGDSQHRDRU-LDADJPATSA-N

> <PUBCHEM_IUPAC_NAME>
(4Z)-6-amino-4-(3-hydroxy-4-oxocyclohexa-2,5-dien-1-ylidene)-3-methyl-1-phenyl-2H-pyrazolo[3,4-b]pyridine-5-carbonitrile

> <PUBCHEM_IUPAC_OPENEYE_NAME>
(4Z)-6-amino-4-(3-hydroxy-4-oxo-cyclohexa-2,5-dien-1-ylidene)-3-methyl-1-phenyl-2H-pyrazolo[3,4-b]pyridine-5-carbonitrile

> <PUBCHEM_IUPAC_SYSTEMATIC_NAME>
(4Z)-6-azanyl-3-methyl-4-(3-oxidanyl-4-oxidanylidene-cyclohexa-2,5-dien-1-ylidene)-1-phenyl-2H-pyrazolo[3,4-b]pyridine-5-carbonitrile

> <PUBCHEM_IUPAC_TRADITIONAL_NAME>
(4Z)-6-amino-4-(3-hydroxy-4-keto-cyclohexa-2,5-dien-1-ylidene)-3-methyl-1-phenyl-2H-pyrazolo[3,4-b]pyridine-5-carbonitrile

> <PUBCHEM_MOLECULAR_FORMULA>
C20H15N5O2

> <PUBCHEM_MOLECULAR_WEIGHT>
357.3654

> <PUBCHEM_MONOISOTOPIC_WEIGHT>
357.122575

> <PUBCHEM_OPENEYE_CAN_SMILES>
CC1=C2C(=C3C=CC(=O)C(=C3)O)C(=C(N=C2N(N1)C4=CC=CC=C4)N)C#N

> <PUBCHEM_OPENEYE_ISO_SMILES>
CC1=C2/C(=C/3\C=CC(=O)C(=C3)O)/C(=C(N=C2N(N1)C4=CC=CC=C4)N)C#N

> <PUBCHEM_TOTAL_CHARGE>
0

> <PUBCHEM_XLOGP3_AA>
1.8

$$$$
Written by BCL::WriteToMDL,9662819
MBcorina  10171218483D 1   1.00000     0.00000 
CORINA 3.49 0026  01.06.2011
 54 57  0  0  0  0  0  0  0  0999 V2000
    0.3518    1.7813   -0.5823 O   0  0  0  1  0  2  0  0  0  0  0  0
   -0.0943   -5.2203   -1.0931 O   0  0  0  1  0  1  0  0  0  0  0  0
    2.8410  -13.2420   -0.6600 O   0  0  0  1  0  2  0  0  0  0  0  0
   -0.2411   -1.7632   -2.6477 N   0  0  0  1  0  3  0  0  0  0  0  0
    1.6119   -1.5244   -0.1489 N   0  0  0  1  0  3  0  0  0  0  0  0
    2.7324   -2.1144    0.4533 N   0  0  0  1  0  2  0  0  0  0  0  0
    2.6274   -3.3927    0.3420 N   0  0  0  1  0  2  0  0  0  0  0  0
    1.8168   -6.1182   -0.4028 N   0  0  0  1  0  3  0  0  0  0  0  0
    0.2142    0.3724   -0.6371 N   0  0  0  1  0  2  0  0  0  0  0  0
    1.6591    2.0661   -0.1164 N   0  0  0  1  0  2  0  0  0  0  0  0
    3.5666    0.7744    0.5560 N   0  0  0  1  0  3  0  0  0  0  0  0
    1.3679   -7.4100   -0.7069 N   0  0  0  1  0  2  0  0  0  0  0  0
   -0.4669   -2.4007   -1.3481 C   0  0  0  1  0  4  0  0  0  0  0  0
    0.8454   -2.5335   -0.6190 C   0  0  0  1  0  3  0  0  0  0  0  0
    0.2135   -2.5225   -3.7283 C   0  0  0  1  0  3  0  0  0  0  0  0
    1.4897   -3.6969   -0.3066 C   0  0  0  1  0  3  0  0  0  0  0  0
   -0.4922   -0.3295   -2.8138 C   0  0  0  1  0  4  0  0  0  0  0  0
    1.3374   -0.1552   -0.2402 C   0  0  0  1  0  3  0  0  0  0  0  0
    0.6117   -1.8945   -4.9017 C   0  0  0  1  0  3  0  0  0  0  0  0
    0.2738   -3.9068   -3.6301 C   0  0  0  1  0  3  0  0  0  0  0  0
    1.0171   -5.0567   -0.6268 C   0  0  0  1  0  3  0  0  0  0  0  0
    1.0606   -2.6482   -5.9683 C   0  0  0  1  0  3  0  0  0  0  0  0
    0.7237   -4.6544   -4.7006 C   0  0  0  1  0  3  0  0  0  0  0  0
    2.2645    0.9297    0.0939 C   0  0  0  1  0  3  0  0  0  0  0  0
    1.1139   -4.0265   -5.8692 C   0  0  0  1  0  3  0  0  0  0  0  0
    1.6653   -9.7920   -0.8114 C   0  0  0  1  0  3  0  0  0  0  0  0
    2.1378   -8.4321   -0.4912 C   0  0  0  1  0  3  0  0  0  0  0  0
    2.4913  -10.8933   -0.5805 C   0  0  0  1  0  3  0  0  0  0  0  0
    0.3868   -9.9835   -1.3417 C   0  0  0  1  0  3  0  0  0  0  0  0
    2.0401  -12.1669   -0.8833 C   0  0  0  1  0  3  0  0  0  0  0  0
   -0.0517  -11.2570   -1.6394 C   0  0  0  1  0  3  0  0  0  0  0  0
    0.7704  -12.3463   -1.4152 C   0  0  0  1  0  3  0  0  0  0  0  0
    2.3116  -14.5262   -0.9955 C   0  0  0  1  0  4  0  0  0  0  0  0
   -1.1503   -1.7902   -0.7578 H   0  0  0  1  0  1  0  0  0  0  0  0
   -0.9005   -3.3893   -1.4987 H   0  0  0  1  0  1  0  0  0  0  0  0
    0.4403    0.2200   -2.6850 H   0  0  0  1  0  1  0  0  0  0  0  0
   -0.8888   -0.1434   -3.8119 H   0  0  0  1  0  1  0  0  0  0  0  0
   -1.2150    0.0016   -2.0681 H   0  0  0  1  0  1  0  0  0  0  0  0
    0.5699   -0.8182   -4.9799 H   0  0  0  1  0  1  0  0  0  0  0  0
   -0.0305   -4.3978   -2.7176 H   0  0  0  1  0  1  0  0  0  0  0  0
    1.3700   -2.1607   -6.8810 H   0  0  0  1  0  1  0  0  0  0  0  0
    0.7712   -5.7307   -4.6248 H   0  0  0  1  0  1  0  0  0  0  0  0
    1.4654   -4.6135   -6.7048 H   0  0  0  1  0  1  0  0  0  0  0  0
    2.7032   -5.9878   -0.0309 H   0  0  0  1  0  1  0  0  0  0  0  0
    4.1083    1.5550    0.7514 H   0  0  0  1  0  1  0  0  0  0  0  0
    3.9334   -0.1146    0.6830 H   0  0  0  1  0  1  0  0  0  0  0  0
    3.1247   -8.2869   -0.0772 H   0  0  0  1  0  1  0  0  0  0  0  0
    3.4791  -10.7525   -0.1673 H   0  0  0  1  0  1  0  0  0  0  0  0
   -0.2578   -9.1350   -1.5181 H   0  0  0  1  0  1  0  0  0  0  0  0
   -1.0400  -11.4039   -2.0493 H   0  0  0  1  0  1  0  0  0  0  0  0
    0.4215  -13.3409   -1.6507 H   0  0  0  1  0  1  0  0  0  0  0  0
    3.0507  -15.2945   -0.7684 H   0  0  0  1  0  1  0  0  0  0  0  0
    1.4072  -14.7092   -0.4153 H   0  0  0  1  0  1  0  0  0  0  0  0
    2.0732  -14.5544   -2.0587 H   0  0  0  1  0  1  0  0  0  0  0  0
  1  9  1  0  0  0  0
  1 10  1  0  0  0  0
  2 21  2  0  0  0  0
  3 30  1  0  0  0  0
  3 33  1  0  0  0  0
  4 13  1  0  0  0  0
  4 15  1  0  0  0  0
  4 17  1  0  0  0  0
  5  6  1  0  0  0  0
  5 14  1  0  0  0  0
  5 18  1  0  0  0  0
  6  7  2  0  0  0  0
  7 16  1  0  0  0  0
  8 12  1  0  0  0  0
  8 21  1  0  0  0  0
  8 44  1  0  0  0  0
  9 18  2  0  0  0  0
 10 24  2  0  0  0  0
 11 24  1  0  0  0  0
 11 45  1  0  0  0  0
 11 46  1  0  0  0  0
 12 27  2  0  0  0  0
 13 14  1  0  0  0  0
 13 34  1  0  0  0  0
 13 35  1  0  0  0  0
 14 16  2  0  0  0  0
 15 19  2  0  0  0  0
 15 20  1  0  0  0  0
 16 21  1  0  0  0  0
 17 36  1  0  0  0  0
 17 37  1  0  0  0  0
 17 38  1  0  0  0  0
 18 24  1  0  0  0  0
 19 22  1  0  0  0  0
 19 39  1  0  0  0  0
 20 23  2  0  0  0  0
 20 40  1  0  0  0  0
 22 25  2  0  0  0  0
 22 41  1  0  0  0  0
 23 25  1  0  0  0  0
 23 42  1  0  0  0  0
 25 43  1  0  0  0  0
 26 27  1  0  0  0  0
 26 28  2  0  0  0  0
 26 29  1  0  0  0  0
 27 47  1  0  0  0  0
 28 30  1  0  0  0  0
 28 48  1  0  0  0  0
 29 31  2  0  0  0  0
 29 49  1  0  0  0  0
 30 32  2  0  0  0  0
 31 32  1  0  0  0  0
 31 50  1  0  0  0  0
 32 51  1  0  0  0  0
 33 52  1  0  0  0  0
 33 53  1  0  0  0  0
 33 54  1  0  0  0  0
M  END
> <Activity>
0.51336

> <Mapped(file=504701.csv.activities,property=Cached(PUBCHEM_COMPOUND_CID))>
0.51336

> <PUBCHEM_ATOM_DEF_STEREO_COUNT>
0

> <PUBCHEM_ATOM_UDEF_STEREO_COUNT>
0

> <PUBCHEM_BONDANNOTATIONS>
1  10  8
1  9  8
10  24  8
14  16  8
15  19  8
15  20  8
18  24  8
19  22  8
20  23  8
22  25  8
23  25  8
26  28  8
26  29  8
28  30  8
29  31  8
30  32  8
31  32  8
5  14  8
5  6  8
6  7  8
7  16  8
9  18  8

> <PUBCHEM_BOND_DEF_STEREO_COUNT>
1

> <PUBCHEM_BOND_UDEF_STEREO_COUNT>
0

> <PUBCHEM_CACTVS_COMPLEXITY>
663

> <PUBCHEM_CACTVS_HBOND_ACCEPTOR>
9

> <PUBCHEM_CACTVS_HBOND_DONOR>
2

> <PUBCHEM_CACTVS_ROTATABLE_BOND>
8

> <PUBCHEM_CACTVS_SUBSKEYS>
AAADceB78AAAAAAAAAAAAAAAAAAAAWLAAAAwYAAAAAAAAAAB9AAAHgAcAAAADAzBngYz9pN6BACrAzdzdgCSDCQnMgA/mAG+fNqMZvrE+ZuUMahkyJPI6WeUwBAOAAABAAAAAAAAAAIAAAAAAAAAAAAAAA==

> <PUBCHEM_CACTVS_TAUTO_COUNT>
4

> <PUBCHEM_CACTVS_TPSA>
150

> <PUBCHEM_COMPONENT_COUNT>
1

> <PUBCHEM_COMPOUND_CANONICALIZED>
1

> <PUBCHEM_COMPOUND_CID>
9662819

> <PUBCHEM_COORDINATE_TYPE>
1
5
255

> <PUBCHEM_EXACT_MASS>
447.176736

> <PUBCHEM_HEAVY_ATOM_COUNT>
33

> <PUBCHEM_ISOTOPIC_ATOM_COUNT>
0

> <PUBCHEM_IUPAC_CAS_NAME>
1-(4-amino-1,2,5-oxadiazol-3-yl)-N-[(E)-(3-methoxyphenyl)methylideneamino]-5-[(N-methylanilino)methyl]-4-triazolecarboxamide

> <PUBCHEM_IUPAC_INCHI>
InChI=1S/C21H21N9O3/c1-29(15-8-4-3-5-9-15)13-17-18(24-28-30(17)20-19(22)26-33-27-20)21(31)25-23-12-14-7-6-10-16(11-14)32-2/h3-12H,13H2,1-2H3,(H2,22,26)(H,25,31)/b23-12+

> <PUBCHEM_IUPAC_INCHIKEY>
GMAAJDOWKUTLHA-FSJBWODESA-N

> <PUBCHEM_IUPAC_NAME>
1-(4-amino-1,2,5-oxadiazol-3-yl)-N-[(E)-(3-methoxyphenyl)methylideneamino]-5-[(N-methylanilino)methyl]triazole-4-carboxamide

> <PUBCHEM_IUPAC_OPENEYE_NAME>
1-(4-amino-1,2,5-oxadiazol-3-yl)-N-[(E)-(3-methoxyphenyl)methyleneamino]-5-[(N-methylanilino)methyl]triazole-4-carboxamide

> <PUBCHEM_IUPAC_SYSTEMATIC_NAME>
1-(4-azanyl-1,2,5-oxadiazol-3-yl)-N-[(E)-(3-methoxyphenyl)methylideneamino]-5-[[methyl(phenyl)amino]methyl]-1,2,3-triazole-4-carboxamide

> <PUBCHEM_IUPAC_TRADITIONAL_NAME>
1-(4-aminofurazan-3-yl)-N-[(E)-m-anisylideneamino]-5-[(N-methylanilino)methyl]triazole-4-carboxamide

> <PUBCHEM_MOLECULAR_FORMULA>
C21H21N9O3

> <PUBCHEM_MOLECULAR_WEIGHT>
447.44994

> <PUBCHEM_MONOISOTOPIC_WEIGHT>
447.176736

> <PUBCHEM_OPENEYE_CAN_SMILES>
CN(CC1=C(N=NN1C2=NON=C2N)C(=O)NN=CC3=CC(=CC=C3)OC)C4=CC=CC=C4

> <PUBCHEM_OPENEYE_ISO_SMILES>
CN(CC1=C(N=NN1C2=NON=C2N)C(=O)N/N=C/C3=CC(=CC=C3)OC)C4=CC=CC=C4

> <PUBCHEM_TOTAL_CHARGE>
0

> <PUBCHEM_XLOGP3_AA>
2

$$$$
Written by BCL::WriteToMDL,2121796
MBcorina  10171218483D 1   1.00000     0.00000 
CORINA 3.49 0026  01.06.2011
 33 35  0  0  0  0  0  0  0  0999 V2000
   -0.0219    1.7606    0.0117 S   0  0  0  1  0  2  0  0  0  0  0  0
    2.7892    3.1686   -0.0076 S   0  0  0  1  0  2  0  0  0  0  0  0
    0.1680   -2.6542   -0.0138 O   0  0  0  1  0  1  0  0  0  0  0  0
   -3.3412   -2.5320    0.0191 N   0  0  0  1  0  2  0  0  0  0  0  0
   -1.1108   -0.8388    0.0077 N   0  0  0  1  0  3  0  0  0  0  0  0
    1.2442   -0.3847   -0.0119 N   0  0  0  1  0  2  0  0  0  0  0  0
    2.1331    0.5097   -0.0156 N   0  0  0  1  0  2  0  0  0  0  0  0
   -4.3154   -4.7075    0.0164 C   0  0  0  1  0  3  0  0  0  0  0  0
   -4.4353   -3.2931    0.0251 C   0  0  0  1  0  3  0  0  0  0  0  0
   -2.1352   -3.0661    0.0052 C   0  0  0  1  0  3  0  0  0  0  0  0
   -3.0324   -5.2868    0.0010 C   0  0  0  1  0  3  0  0  0  0  0  0
   -1.9489   -4.4568   -0.0045 C   0  0  0  1  0  3  0  0  0  0  0  0
   -5.4733   -5.5009    0.0232 C   0  0  0  1  0  3  0  0  0  0  0  0
   -5.7194   -2.7161    0.0405 C   0  0  0  1  0  3  0  0  0  0  0  0
   -0.9496   -2.1769   -0.0009 C   0  0  0  1  0  3  0  0  0  0  0  0
   -6.6979   -4.9056    0.0381 C   0  0  0  1  0  3  0  0  0  0  0  0
   -6.8190   -3.5170    0.0467 C   0  0  0  1  0  3  0  0  0  0  0  0
    0.0021   -0.0041    0.0020 C   0  0  0  1  0  3  0  0  0  0  0  0
    4.4536    2.4474   -0.0273 C   0  0  0  1  0  4  0  0  0  0  0  0
    1.7429    1.7509   -0.0052 C   0  0  0  1  0  3  0  0  0  0  0  0
    5.4951    3.5682   -0.0312 C   0  0  0  1  0  4  0  0  0  0  0  0
   -2.9088   -6.3596   -0.0056 H   0  0  0  1  0  1  0  0  0  0  0  0
   -0.9509   -4.8694   -0.0166 H   0  0  0  1  0  1  0  0  0  0  0  0
   -5.3934   -6.5780    0.0163 H   0  0  0  1  0  1  0  0  0  0  0  0
   -5.8310   -1.6419    0.0476 H   0  0  0  1  0  1  0  0  0  0  0  0
   -7.5876   -5.5177    0.0434 H   0  0  0  1  0  1  0  0  0  0  0  0
   -7.8019   -3.0696    0.0589 H   0  0  0  1  0  1  0  0  0  0  0  0
   -2.0028   -0.4578    0.0180 H   0  0  0  1  0  1  0  0  0  0  0  0
    4.5911    1.8267    0.8581 H   0  0  0  1  0  1  0  0  0  0  0  0
    4.5741    1.8362   -0.9218 H   0  0  0  1  0  1  0  0  0  0  0  0
    6.4951    3.1348   -0.0431 H   0  0  0  1  0  1  0  0  0  0  0  0
    5.3575    4.1889   -0.9166 H   0  0  0  1  0  1  0  0  0  0  0  0
    5.3745    4.1793    0.8632 H   0  0  0  1  0  1  0  0  0  0  0  0
  1 18  1  0  0  0  0
  1 20  1  0  0  0  0
  2 19  1  0  0  0  0
  2 20  1  0  0  0  0
  3 15  2  0  0  0  0
  4  9  1  0  0  0  0
  4 10  2  0  0  0  0
  5 15  1  0  0  0  0
  5 18  1  0  0  0  0
  5 28  1  0  0  0  0
  6  7  1  0  0  0  0
  6 18  2  0  0  0  0
  7 20  2  0  0  0  0
  8  9  1  0  0  0  0
  8 11  1  0  0  0  0
  8 13  2  0  0  0  0
  9 14  2  0  0  0  0
 10 12  1  0  0  0  0
 10 15  1  0  0  0  0
 11 12  2  0  0  0  0
 11 22  1  0  0  0  0
 12 23  1  0  0  0  0
 13 16  1  0  0  0  0
 13 24  1  0  0  0  0
 14 17  1  0  0  0  0
 14 25  1  0  0  0  0
 16 17  2  0  0  0  0
 16 26  1  0  0  0  0
 17 27  1  0  0  0  0
 19 21  1  0  0  0  0
 19 29  1  0  0  0  0
 19 30  1  0  0  0  0
 21 31  1  0  0  0  0
 21 32  1  0  0  0  0
 21 33  1  0  0  0  0
M  END
> <Activity>
2.669

> <Mapped(file=504701.csv.activities,property=Cached(PUBCHEM_COMPOUND_CID))>
2.669

> <PUBCHEM_ATOM_DEF_STEREO_COUNT>
0

> <PUBCHEM_ATOM_UDEF_STEREO_COUNT>
0

> <PUBCHEM_BONDANNOTATIONS>
1  18  8
1  20  8
10  12  8
11  12  8
13  16  8
14  17  8
16  17  8
4  10  8
4  9  8
6  18  8
6  7  8
7  20  8
8  11  8
8  13  8
8  9  8
9  14  8

> <PUBCHEM_BOND_DEF_STEREO_COUNT>
0

> <PUBCHEM_BOND_UDEF_STEREO_COUNT>
0

> <PUBCHEM_CACTVS_COMPLEXITY>
371

> <PUBCHEM_CACTVS_HBOND_ACCEPTOR>
4

> <PUBCHEM_CACTVS_HBOND_DONOR>
1

> <PUBCHEM_CACTVS_ROTATABLE_BOND>
4

> <PUBCHEM_CACTVS_SUBSKEYS>
AAADccBzoABgAAAAAAAAAAAAAAAAAWAAAAA8QAAAAAAAAACx/AAAHgQYAAAADAiF3gCz0PLIEAiuAyVydACSgSJnAjkNmCGwZNiIYPLAnbGUIQhwgQLIyYcYiICOAAAAAAACAAAAAAAAAAQAAAAAAAAAAA==

> <PUBCHEM_CACTVS_TAUTO_COUNT>
3

> <PUBCHEM_CACTVS_TPSA>
121

> <PUBCHEM_COMPONENT_COUNT>
1

> <PUBCHEM_COMPOUND_CANONICALIZED>
1

> <PUBCHEM_COMPOUND_CID>
2121796

> <PUBCHEM_COORDINATE_TYPE>
1
5
255

> <PUBCHEM_EXACT_MASS>
316.045253

> <PUBCHEM_HEAVY_ATOM_COUNT>
21

> <PUBCHEM_ISOTOPIC_ATOM_COUNT>
0

> <PUBCHEM_IUPAC_CAS_NAME>
N-[5-(ethylthio)-1,3,4-thiadiazol-2-yl]-2-quinolinecarboxamide

> <PUBCHEM_IUPAC_INCHI>
InChI=1S/C14H12N4OS2/c1-2-20-14-18-17-13(21-14)16-12(19)11-8-7-9-5-3-4-6-10(9)15-11/h3-8H,2H2,1H3,(H,16,17,19)

> <PUBCHEM_IUPAC_INCHIKEY>
DUUWHYWCCQNXKS-UHFFFAOYSA-N

> <PUBCHEM_IUPAC_NAME>
N-(5-ethylsulfanyl-1,3,4-thiadiazol-2-yl)quinoline-2-carboxamide

> <PUBCHEM_IUPAC_OPENEYE_NAME>
N-(5-ethylsulfanyl-1,3,4-thiadiazol-2-yl)quinoline-2-carboxamide

> <PUBCHEM_IUPAC_SYSTEMATIC_NAME>
N-(5-ethylsulfanyl-1,3,4-thiadiazol-2-yl)quinoline-2-carboxamide

> <PUBCHEM_IUPAC_TRADITIONAL_NAME>
N-[5-(ethylthio)-1,3,4-thiadiazol-2-yl]quinaldamide

> <PUBCHEM_MOLECULAR_FORMULA>
C14H12N4OS2

> <PUBCHEM_MOLECULAR_WEIGHT>
316.40128

> <PUBCHEM_MONOISOTOPIC_WEIGHT>
316.045253

> <PUBCHEM_OPENEYE_CAN_SMILES>
CCSC1=NN=C(S1)NC(=O)C2=NC3=CC=CC=C3C=C2

> <PUBCHEM_OPENEYE_ISO_SMILES>
CCSC1=NN=C(S1)NC(=O)C2=NC3=CC=CC=C3C=C2

> <PUBCHEM_TOTAL_CHARGE>
0

> <PUBCHEM_XLOGP3_AA>
3.3

$$$$
Written by BCL::WriteToMDL,1504905
MBcorina  10171218483D 1   1.00000     0.00000 
CORINA 3.49 0026  01.06.2011
 48 52  0  0  0  0  0  0  0  0999 V2000
   -0.0218    1.7557    0.0117 S   0  0  0  1  0  2  0  0  0  0  0  0
    1.1470    9.1235    1.0819 O   0  0  0  1  0  2  0  0  0  0  0  0
    1.8735    6.6267    0.0209 N   0  0  0  1  0  3  0  0  0  0  0  0
   -1.0015   -0.8795    0.0086 N   0  0  0  1  0  2  0  0  0  0  0  0
    1.8470    4.2814    0.0080 N   0  0  0  1  0  2  0  0  0  0  0  0
    3.6615    0.4300   -0.0304 N   0  0  0  1  0  3  0  0  0  0  0  0
    3.8666    5.3875   -0.0050 N   0  0  0  1  0  2  0  0  0  0  0  0
    3.8232    3.0853   -0.0179 N   0  0  0  1  0  2  0  0  0  0  0  0
    5.8888    4.1969   -0.0317 N   0  0  0  1  0  3  0  0  0  0  0  0
   -0.4994   -4.9721    0.3973 C   0  0  0  1  0  4  0  0  0  0  0  0
    0.7386   -4.1911   -0.0394 C   0  0  0  1  0  4  0  0  0  0  0  0
   -1.6945   -4.4834   -0.4293 C   0  0  0  1  0  4  0  0  0  0  0  0
   -2.0422   -3.0649    0.0163 C   0  0  0  1  0  4  0  0  0  0  0  0
    0.4640   -2.7107   -0.0208 C   0  0  0  1  0  3  0  0  0  0  0  0
   -0.8155   -2.1877   -0.0009 C   0  0  0  1  0  3  0  0  0  0  0  0
    1.5479   -1.8528   -0.0257 C   0  0  0  1  0  3  0  0  0  0  0  0
    1.3250   -0.4602   -0.0143 C   0  0  0  1  0  3  0  0  0  0  0  0
    0.0021   -0.0041    0.0020 C   0  0  0  1  0  3  0  0  0  0  0  0
    2.8238    7.7484    0.0183 C   0  0  0  1  0  4  0  0  0  0  0  0
    0.9642    6.7169    1.1726 C   0  0  0  1  0  4  0  0  0  0  0  0
    2.2823    0.6333   -0.0168 C   0  0  0  1  0  3  0  0  0  0  0  0
    1.7279    1.8536   -0.0045 C   0  0  0  1  0  3  0  0  0  0  0  0
    2.0478    9.0674   -0.0274 C   0  0  0  1  0  4  0  0  0  0  0  0
    0.2070    8.0462    1.1152 C   0  0  0  1  0  4  0  0  0  0  0  0
    2.5370    5.4163    0.0079 C   0  0  0  1  0  3  0  0  0  0  0  0
    2.4891    3.1114   -0.0050 C   0  0  0  1  0  3  0  0  0  0  0  0
    4.5087    4.2232   -0.0179 C   0  0  0  1  0  3  0  0  0  0  0  0
   -0.3426   -6.0365    0.2225 H   0  0  0  1  0  1  0  0  0  0  0  0
   -0.6892   -4.7974    1.4563 H   0  0  0  1  0  1  0  0  0  0  0  0
    1.5615   -4.4126    0.6401 H   0  0  0  1  0  1  0  0  0  0  0  0
    1.0161   -4.4926   -1.0494 H   0  0  0  1  0  1  0  0  0  0  0  0
   -1.4319   -4.4810   -1.4872 H   0  0  0  1  0  1  0  0  0  0  0  0
   -2.5486   -5.1397   -0.2621 H   0  0  0  1  0  1  0  0  0  0  0  0
   -2.7906   -2.6494   -0.6586 H   0  0  0  1  0  1  0  0  0  0  0  0
   -2.4483   -3.0952    1.0274 H   0  0  0  1  0  1  0  0  0  0  0  0
    2.5543   -2.2446   -0.0382 H   0  0  0  1  0  1  0  0  0  0  0  0
    3.4299    7.7140    0.9236 H   0  0  0  1  0  1  0  0  0  0  0  0
    3.4702    7.6759   -0.8563 H   0  0  0  1  0  1  0  0  0  0  0  0
    0.2532    5.8913    1.1405 H   0  0  0  1  0  1  0  0  0  0  0  0
    1.5407    6.6659    2.0963 H   0  0  0  1  0  1  0  0  0  0  0  0
   -0.4262    8.1427    1.9972 H   0  0  0  1  0  1  0  0  0  0  0  0
   -0.4111    8.0746    0.2178 H   0  0  0  1  0  1  0  0  0  0  0  0
    1.4833    9.1255   -0.9580 H   0  0  0  1  0  1  0  0  0  0  0  0
    2.7461    9.9026    0.0282 H   0  0  0  1  0  1  0  0  0  0  0  0
    4.0189   -0.4717   -0.0387 H   0  0  0  1  0  1  0  0  0  0  0  0
    4.2638    1.1904   -0.0316 H   0  0  0  1  0  1  0  0  0  0  0  0
    6.3897    5.0275   -0.0320 H   0  0  0  1  0  1  0  0  0  0  0  0
    6.3576    3.3478   -0.0411 H   0  0  0  1  0  1  0  0  0  0  0  0
  1 18  1  0  0  0  0
  1 22  1  0  0  0  0
  2 23  1  0  0  0  0
  2 24  1  0  0  0  0
  3 19  1  0  0  0  0
  3 20  1  0  0  0  0
  3 25  1  0  0  0  0
  4 15  2  0  0  0  0
  4 18  1  0  0  0  0
  5 25  2  0  0  0  0
  5 26  1  0  0  0  0
  6 21  1  0  0  0  0
  6 45  1  0  0  0  0
  6 46  1  0  0  0  0
  7 25  1  0  0  0  0
  7 27  2  0  0  0  0
  8 26  2  0  0  0  0
  8 27  1  0  0  0  0
  9 27  1  0  0  0  0
  9 47  1  0  0  0  0
  9 48  1  0  0  0  0
 10 11  1  0  0  0  0
 10 12  1  0  0  0  0
 10 28  1  0  0  0  0
 10 29  1  0  0  0  0
 11 14  1  0  0  0  0
 11 30  1  0  0  0  0
 11 31  1  0  0  0  0
 12 13  1  0  0  0  0
 12 32  1  0  0  0  0
 12 33  1  0  0  0  0
 13 15  1  0  0  0  0
 13 34  1  0  0  0  0
 13 35  1  0  0  0  0
 14 15  1  0  0  0  0
 14 16  2  0  0  0  0
 16 17  1  0  0  0  0
 16 36  1  0  0  0  0
 17 18  2  0  0  0  0
 17 21  1  0  0  0  0
 19 23  1  0  0  0  0
 19 37  1  0  0  0  0
 19 38  1  0  0  0  0
 20 24  1  0  0  0  0
 20 39  1  0  0  0  0
 20 40  1  0  0  0  0
 21 22  2  0  0  0  0
 22 26  1  0  0  0  0
 23 43  1  0  0  0  0
 23 44  1  0  0  0  0
 24 41  1  0  0  0  0
 24 42  1  0  0  0  0
M  END
> <Activity>
0.79709

> <Mapped(file=504701.csv.activities,property=Cached(PUBCHEM_COMPOUND_CID))>
0.79709

> <PUBCHEM_ATOM_DEF_STEREO_COUNT>
0

> <PUBCHEM_ATOM_UDEF_STEREO_COUNT>
0

> <PUBCHEM_BONDANNOTATIONS>
1  18  8
1  22  8
14  15  8
14  16  8
16  17  8
17  18  8
17  21  8
21  22  8
4  15  8
4  18  8
5  25  8
5  26  8
7  25  8
7  27  8
8  26  8
8  27  8

> <PUBCHEM_BOND_DEF_STEREO_COUNT>
0

> <PUBCHEM_BOND_UDEF_STEREO_COUNT>
0

> <PUBCHEM_CACTVS_COMPLEXITY>
522

> <PUBCHEM_CACTVS_HBOND_ACCEPTOR>
3

> <PUBCHEM_CACTVS_HBOND_DONOR>
2

> <PUBCHEM_CACTVS_ROTATABLE_BOND>
2

> <PUBCHEM_CACTVS_SUBSKEYS>
AAADceB7oABAAAAAAAAAAAAAAAAAASAAAAA8WLEAAAAAAFix/gAAHgQQAAAADAjh3wYx0ddIFAikAyZiZACD0KlhCLgBmDQ4RJiKKOLg2dGHJAxogAL4yAcQgMAOAAAAAAAAAAAAAAAAAAQAAAAAAAAAAA==

> <PUBCHEM_CACTVS_TAUTO_COUNT>
9

> <PUBCHEM_CACTVS_TPSA>
144

> <PUBCHEM_COMPONENT_COUNT>
1

> <PUBCHEM_COMPOUND_CANONICALIZED>
1

> <PUBCHEM_COMPOUND_CID>
1504905

> <PUBCHEM_COORDINATE_TYPE>
1
5
255

> <PUBCHEM_EXACT_MASS>
383.152829

> <PUBCHEM_HEAVY_ATOM_COUNT>
27

> <PUBCHEM_ISOTOPIC_ATOM_COUNT>
0

> <PUBCHEM_IUPAC_CAS_NAME>
2-[4-amino-6-(4-morpholinyl)-1,3,5-triazin-2-yl]-5,6,7,8-tetrahydrothieno[2,3-b]quinolin-3-amine

> <PUBCHEM_IUPAC_INCHI>
InChI=1S/C18H21N7OS/c19-13-11-9-10-3-1-2-4-12(10)21-16(11)27-14(13)15-22-17(20)24-18(23-15)25-5-7-26-8-6-25/h9H,1-8,19H2,(H2,20,22,23,24)

> <PUBCHEM_IUPAC_INCHIKEY>
BONGLMPHHVQSIR-UHFFFAOYSA-N

> <PUBCHEM_IUPAC_NAME>
2-(4-amino-6-morpholin-4-yl-1,3,5-triazin-2-yl)-5,6,7,8-tetrahydrothieno[2,3-b]quinolin-3-amine

> <PUBCHEM_IUPAC_OPENEYE_NAME>
2-(4-amino-6-morpholino-1,3,5-triazin-2-yl)-5,6,7,8-tetrahydrothieno[2,3-b]quinolin-3-amine

> <PUBCHEM_IUPAC_SYSTEMATIC_NAME>
2-(4-azanyl-6-morpholin-4-yl-1,3,5-triazin-2-yl)-5,6,7,8-tetrahydrothieno[2,3-b]quinolin-3-amine

> <PUBCHEM_IUPAC_TRADITIONAL_NAME>
[2-(4-amino-6-morpholino-s-triazin-2-yl)-5,6,7,8-tetrahydrothieno[2,3-b]quinolin-3-yl]amine

> <PUBCHEM_MOLECULAR_FORMULA>
C18H21N7OS

> <PUBCHEM_MOLECULAR_WEIGHT>
383.47064

> <PUBCHEM_MONOISOTOPIC_WEIGHT>
383.152829

> <PUBCHEM_OPENEYE_CAN_SMILES>
C1CCC2=C(C1)C=C3C(=C(SC3=N2)C4=NC(=NC(=N4)N)N5CCOCC5)N

> <PUBCHEM_OPENEYE_ISO_SMILES>
C1CCC2=C(C1)C=C3C(=C(SC3=N2)C4=NC(=NC(=N4)N)N5CCOCC5)N

> <PUBCHEM_TOTAL_CHARGE>
0

> <PUBCHEM_XLOGP3_AA>
2.2

$$$$
Written by BCL::WriteToMDL,16309185
MBcorina  10171218483D 1   1.00000     0.00000 
CORINA 3.49 0026  01.06.2011
 58 60  0  0  0  0  0  0  0  0999 V2000
   -7.1358   -5.3139    6.6668 Cl  0  0  0  1  0  1  0  0  0  0  0  0
    0.1510    0.7178    0.0679 S   0  0  0  1  0  4  0  0  0  0  0  0
    0.0763   -0.6906    0.2411 O   0  0  0  1  0  1  0  0  0  0  0  0
    1.3796    1.4294    0.0078 O   0  0  0  1  0  1  0  0  0  0  0  0
   -2.3191   -1.3604    3.4963 O   0  0  0  1  0  1  0  0  0  0  0  0
   -0.6566    1.0598   -1.3368 N   0  0  0  1  0  3  0  0  0  0  0  0
   -4.0813   -3.0478    4.4634 N   0  0  0  1  0  3  0  0  0  0  0  0
   -3.4862    0.5159    3.6946 N   0  0  0  1  0  3  0  0  0  0  0  0
   -0.3624    2.2867   -2.0897 C   0  0  0  1  0  4  0  0  0  0  0  0
   -1.6766    0.1391   -1.8570 C   0  0  0  1  0  4  0  0  0  0  0  0
   -0.0360    1.9099   -3.5383 C   0  0  0  1  0  4  0  0  0  0  0  0
   -1.3325   -0.2088   -3.3086 C   0  0  0  1  0  4  0  0  0  0  0  0
   -1.1834    1.0779   -4.1157 C   0  0  0  1  0  4  0  0  0  0  0  0
   -0.7730    1.4312    1.3877 C   0  0  0  1  0  3  0  0  0  0  0  0
   -1.7589    0.6955    2.0162 C   0  0  0  1  0  3  0  0  0  0  0  0
   -0.5068    2.7247    1.7970 C   0  0  0  1  0  3  0  0  0  0  0  0
   -2.4866    1.2583    3.0562 C   0  0  0  1  0  3  0  0  0  0  0  0
   -4.4757   -1.6336    4.4152 C   0  0  0  1  0  4  0  0  0  0  0  0
   -4.8269   -3.7670    5.5050 C   0  0  0  1  0  4  0  0  0  0  0  0
   -1.2299    3.2882    2.8325 C   0  0  0  1  0  3  0  0  0  0  0  0
   -2.2206    2.5600    3.4611 C   0  0  0  1  0  3  0  0  0  0  0  0
   -3.3491   -0.8174    3.8357 C   0  0  0  1  0  3  0  0  0  0  0  0
   -4.8894   -5.2320    5.1573 C   0  0  0  1  0  3  0  0  0  0  0  0
   -5.7199   -1.4807    3.5380 C   0  0  0  1  0  4  0  0  0  0  0  0
   -4.1203   -3.5920    6.8508 C   0  0  0  1  0  4  0  0  0  0  0  0
   -5.9177   -6.0166    5.6488 C   0  0  0  1  0  3  0  0  0  0  0  0
   -3.9229   -5.7908    4.3427 C   0  0  0  1  0  3  0  0  0  0  0  0
   -5.9744   -7.3613    5.3292 C   0  0  0  1  0  3  0  0  0  0  0  0
   -3.9804   -7.1347    4.0232 C   0  0  0  1  0  3  0  0  0  0  0  0
   -5.0039   -7.9204    4.5190 C   0  0  0  1  0  3  0  0  0  0  0  0
   -1.6884   -0.7703   -1.2562 H   0  0  0  1  0  1  0  0  0  0  0  0
   -2.6550    0.6180   -1.8180 H   0  0  0  1  0  1  0  0  0  0  0  0
   -1.2313    2.9445   -2.0702 H   0  0  0  1  0  1  0  0  0  0  0  0
    0.4925    2.7937   -1.6425 H   0  0  0  1  0  1  0  0  0  0  0  0
   -0.3971   -0.7677   -3.3369 H   0  0  0  1  0  1  0  0  0  0  0  0
   -2.1315   -0.8140   -3.7369 H   0  0  0  1  0  1  0  0  0  0  0  0
    0.0900    2.8163   -4.1304 H   0  0  0  1  0  1  0  0  0  0  0  0
    0.8848    1.3271   -3.5639 H   0  0  0  1  0  1  0  0  0  0  0  0
   -2.1086    1.6521   -4.0670 H   0  0  0  1  0  1  0  0  0  0  0  0
   -0.9648    0.8292   -5.1542 H   0  0  0  1  0  1  0  0  0  0  0  0
   -1.9636   -0.3163    1.6988 H   0  0  0  1  0  1  0  0  0  0  0  0
    0.2677    3.2962    1.3071 H   0  0  0  1  0  1  0  0  0  0  0  0
   -4.6967   -1.2834    5.4235 H   0  0  0  1  0  1  0  0  0  0  0  0
   -5.8382   -3.3657    5.5707 H   0  0  0  1  0  1  0  0  0  0  0  0
   -4.2019   -3.4877    3.5634 H   0  0  0  1  0  1  0  0  0  0  0  0
   -1.0195    4.2989    3.1499 H   0  0  0  1  0  1  0  0  0  0  0  0
   -4.2778    0.9609    4.0356 H   0  0  0  1  0  1  0  0  0  0  0  0
   -2.7849    3.0006    4.2697 H   0  0  0  1  0  1  0  0  0  0  0  0
   -6.0125   -0.4313    3.5022 H   0  0  0  1  0  1  0  0  0  0  0  0
   -5.4989   -1.8308    2.5297 H   0  0  0  1  0  1  0  0  0  0  0  0
   -6.5347   -2.0710    3.9571 H   0  0  0  1  0  1  0  0  0  0  0  0
   -4.0751   -2.5324    7.1024 H   0  0  0  1  0  1  0  0  0  0  0  0
   -4.6735   -4.1256    7.6237 H   0  0  0  1  0  1  0  0  0  0  0  0
   -3.1090   -3.9933    6.7851 H   0  0  0  1  0  1  0  0  0  0  0  0
   -3.1228   -5.1775    3.9554 H   0  0  0  1  0  1  0  0  0  0  0  0
   -6.7765   -7.9743    5.7129 H   0  0  0  1  0  1  0  0  0  0  0  0
   -3.2253   -7.5709    3.3861 H   0  0  0  1  0  1  0  0  0  0  0  0
   -5.0480   -8.9702    4.2694 H   0  0  0  1  0  1  0  0  0  0  0  0
  1 26  1  0  0  0  0
  2  3  2  0  0  0  0
  2  4  2  0  0  0  0
  2  6  1  0  0  0  0
  2 14  1  0  0  0  0
  5 22  2  0  0  0  0
  6  9  1  0  0  0  0
  6 10  1  0  0  0  0
  7 18  1  0  0  0  0
  7 19  1  0  0  0  0
  7 45  1  0  0  0  0
  8 17  1  0  0  0  0
  8 22  1  0  0  0  0
  8 47  1  0  0  0  0
  9 11  1  0  0  0  0
  9 33  1  0  0  0  0
  9 34  1  0  0  0  0
 10 12  1  0  0  0  0
 10 31  1  0  0  0  0
 10 32  1  0  0  0  0
 11 13  1  0  0  0  0
 11 37  1  0  0  0  0
 11 38  1  0  0  0  0
 12 13  1  0  0  0  0
 12 35  1  0  0  0  0
 12 36  1  0  0  0  0
 13 39  1  0  0  0  0
 13 40  1  0  0  0  0
 14 15  1  0  0  0  0
 14 16  2  0  0  0  0
 15 17  2  0  0  0  0
 15 41  1  0  0  0  0
 16 20  1  0  0  0  0
 16 42  1  0  0  0  0
 17 21  1  0  0  0  0
 18 22  1  0  0  0  0
 18 24  1  0  0  0  0
 18 43  1  0  0  0  0
 19 23  1  0  0  0  0
 19 25  1  0  0  0  0
 19 44  1  0  0  0  0
 20 21  2  0  0  0  0
 20 46  1  0  0  0  0
 21 48  1  0  0  0  0
 23 26  1  0  0  0  0
 23 27  2  0  0  0  0
 24 49  1  0  0  0  0
 24 50  1  0  0  0  0
 24 51  1  0  0  0  0
 25 52  1  0  0  0  0
 25 53  1  0  0  0  0
 25 54  1  0  0  0  0
 26 28  2  0  0  0  0
 27 29  1  0  0  0  0
 27 55  1  0  0  0  0
 28 30  1  0  0  0  0
 28 56  1  0  0  0  0
 29 30  2  0  0  0  0
 29 57  1  0  0  0  0
 30 58  1  0  0  0  0
M  END
> <Activity>
0.23829

> <Mapped(file=504701.csv.activities,property=Cached(PUBCHEM_COMPOUND_CID))>
0.23829

> <PUBCHEM_ATOM_DEF_STEREO_COUNT>
0

> <PUBCHEM_ATOM_UDEF_STEREO_COUNT>
2

> <PUBCHEM_BONDANNOTATIONS>
14  15  8
14  16  8
15  17  8
16  20  8
17  21  8
18  24  3
19  25  3
20  21  8
23  26  8
23  27  8
26  28  8
27  29  8
28  30  8
29  30  8

> <PUBCHEM_BOND_DEF_STEREO_COUNT>
0

> <PUBCHEM_BOND_UDEF_STEREO_COUNT>
0

> <PUBCHEM_CACTVS_COMPLEXITY>
663

> <PUBCHEM_CACTVS_HBOND_ACCEPTOR>
5

> <PUBCHEM_CACTVS_HBOND_DONOR>
2

> <PUBCHEM_CACTVS_ROTATABLE_BOND>
7

> <PUBCHEM_CACTVS_SUBSKEYS>
AAADceB7MABEAAAAAAAAAAAAAAAAAAAAAAA8YIAAAAAAAAABQAAAHgYQQAAADCrB2CQywYLAAAKIAiVSUHDCABAhBwAIiJmIZogIYCLBk7GUIAxglADIyAcQgIAOAAAAACABAAAAAAAAQAIAAAAAAAAAAA==

> <PUBCHEM_CACTVS_TAUTO_COUNT>
3

> <PUBCHEM_CACTVS_TPSA>
86.9

> <PUBCHEM_COMPONENT_COUNT>
1

> <PUBCHEM_COMPOUND_CANONICALIZED>
1

> <PUBCHEM_COMPOUND_CID>
16309185

> <PUBCHEM_COORDINATE_TYPE>
1
5
255

> <PUBCHEM_EXACT_MASS>
449.15399

> <PUBCHEM_HEAVY_ATOM_COUNT>
30

> <PUBCHEM_ISOTOPIC_ATOM_COUNT>
0

> <PUBCHEM_IUPAC_CAS_NAME>
2-[1-(2-chlorophenyl)ethylamino]-N-[3-(1-piperidinylsulfonyl)phenyl]propanamide

> <PUBCHEM_IUPAC_INCHI>
InChI=1S/C22H28ClN3O3S/c1-16(20-11-4-5-12-21(20)23)24-17(2)22(27)25-18-9-8-10-19(15-18)30(28,29)26-13-6-3-7-14-26/h4-5,8-12,15-17,24H,3,6-7,13-14H2,1-2H3,(H,25,27)

> <PUBCHEM_IUPAC_INCHIKEY>
MKNNWVHPBTUYHG-UHFFFAOYSA-N

> <PUBCHEM_IUPAC_NAME>
2-[1-(2-chlorophenyl)ethylamino]-N-(3-piperidin-1-ylsulfonylphenyl)propanamide

> <PUBCHEM_IUPAC_OPENEYE_NAME>
2-[1-(2-chlorophenyl)ethylamino]-N-[3-(1-piperidylsulfonyl)phenyl]propanamide

> <PUBCHEM_IUPAC_SYSTEMATIC_NAME>
2-[1-(2-chlorophenyl)ethylamino]-N-(3-piperidin-1-ylsulfonylphenyl)propanamide

> <PUBCHEM_IUPAC_TRADITIONAL_NAME>
2-[1-(2-chlorophenyl)ethylamino]-N-(3-piperidinosulfonylphenyl)propionamide

> <PUBCHEM_MOLECULAR_FORMULA>
C22H28ClN3O3S

> <PUBCHEM_MOLECULAR_WEIGHT>
449.99402

> <PUBCHEM_MONOISOTOPIC_WEIGHT>
449.15399

> <PUBCHEM_OPENEYE_CAN_SMILES>
CC(C1=CC=CC=C1Cl)NC(C)C(=O)NC2=CC(=CC=C2)S(=O)(=O)N3CCCCC3

> <PUBCHEM_OPENEYE_ISO_SMILES>
CC(C1=CC=CC=C1Cl)NC(C)C(=O)NC2=CC(=CC=C2)S(=O)(=O)N3CCCCC3

> <PUBCHEM_TOTAL_CHARGE>
0

> <PUBCHEM_XLOGP3_AA>
3.6

$$$$
Written by BCL::WriteToMDL,24819158
MBcorina  10171218483D 1   1.00000     0.00000 
CORINA 3.49 0026  01.06.2011
 38 41  0  0  0  0  0  0  0  0999 V2000
    3.3480   -0.5528    1.0712 O   0  0  0  1  0  1  0  0  0  0  0  0
   -0.0166    1.3743    0.0096 N   0  0  0  1  0  3  0  0  0  0  0  0
   -1.0685   -7.4239   -1.0907 N   0  0  0  1  0  2  0  0  0  0  0  0
    0.0041    0.0013   -0.1119 C   0  0  0  1  0  3  0  0  0  0  0  0
    1.1439    2.1126    0.1165 C   0  0  0  1  0  3  0  0  0  0  0  0
    1.1775   -0.7212    0.1748 C   0  0  0  1  0  3  0  0  0  0  0  0
    2.3653    1.4824    0.4133 C   0  0  0  1  0  3  0  0  0  0  0  0
    2.3836    0.0183    0.5958 C   0  0  0  1  0  3  0  0  0  0  0  0
   -1.1400   -0.6841   -0.5201 C   0  0  0  1  0  3  0  0  0  0  0  0
    1.1934   -2.1087    0.0576 C   0  0  0  1  0  3  0  0  0  0  0  0
   -1.3063    2.0691    0.0194 C   0  0  0  1  0  4  0  0  0  0  0  0
    1.1195    3.4924   -0.0681 C   0  0  0  1  0  3  0  0  0  0  0  0
    3.5342    2.2353    0.5273 C   0  0  0  1  0  3  0  0  0  0  0  0
    0.0383   -2.7728   -0.3499 C   0  0  0  1  0  3  0  0  0  0  0  0
   -1.1242   -2.0426   -0.6370 C   0  0  0  1  0  3  0  0  0  0  0  0
    2.2823    4.2230    0.0450 C   0  0  0  1  0  3  0  0  0  0  0  0
    3.4856    3.5995    0.3425 C   0  0  0  1  0  3  0  0  0  0  0  0
    0.0379   -4.1994   -0.4745 C   0  0  0  1  0  2  0  0  0  0  0  0
    0.0375   -5.3689   -0.5767 C   0  0  0  1  0  2  0  0  0  0  0  0
    0.0371   -6.7955   -0.7013 C   0  0  0  1  0  3  0  0  0  0  0  0
    1.1981   -7.5174   -0.4125 C   0  0  0  1  0  3  0  0  0  0  0  0
    1.1807   -8.8948   -0.5375 C   0  0  0  1  0  3  0  0  0  0  0  0
    0.0049   -9.5090   -0.9469 C   0  0  0  1  0  3  0  0  0  0  0  0
   -1.1087   -8.7343   -1.2167 C   0  0  0  1  0  3  0  0  0  0  0  0
   -2.0432   -0.1361   -0.7445 H   0  0  0  1  0  1  0  0  0  0  0  0
    2.0923   -2.6644    0.2799 H   0  0  0  1  0  1  0  0  0  0  0  0
   -2.0659    1.4191    0.4538 H   0  0  0  1  0  1  0  0  0  0  0  0
   -1.2241    2.9793    0.6135 H   0  0  0  1  0  1  0  0  0  0  0  0
   -1.5885    2.3259   -1.0016 H   0  0  0  1  0  1  0  0  0  0  0  0
    0.1894    3.9898   -0.3002 H   0  0  0  1  0  1  0  0  0  0  0  0
    4.4715    1.7516    0.7594 H   0  0  0  1  0  1  0  0  0  0  0  0
   -2.0165   -2.5619   -0.9541 H   0  0  0  1  0  1  0  0  0  0  0  0
    2.2568    5.2930   -0.1000 H   0  0  0  1  0  1  0  0  0  0  0  0
    4.3880    4.1864    0.4297 H   0  0  0  1  0  1  0  0  0  0  0  0
    2.0961   -7.0073   -0.0967 H   0  0  0  1  0  1  0  0  0  0  0  0
    2.0626   -9.4796   -0.3217 H   0  0  0  1  0  1  0  0  0  0  0  0
   -0.0398  -10.5828   -1.0541 H   0  0  0  1  0  1  0  0  0  0  0  0
   -2.0242   -9.2106   -1.5349 H   0  0  0  1  0  1  0  0  0  0  0  0
  1  8  2  0  0  0  0
  2  4  1  0  0  0  0
  2  5  1  0  0  0  0
  2 11  1  0  0  0  0
  3 20  1  0  0  0  0
  3 24  2  0  0  0  0
  4  6  2  0  0  0  0
  4  9  1  0  0  0  0
  5  7  1  0  0  0  0
  5 12  2  0  0  0  0
  6  8  1  0  0  0  0
  6 10  1  0  0  0  0
  7  8  1  0  0  0  0
  7 13  2  0  0  0  0
  9 15  2  0  0  0  0
  9 25  1  0  0  0  0
 10 14  2  0  0  0  0
 10 26  1  0  0  0  0
 11 27  1  0  0  0  0
 11 28  1  0  0  0  0
 11 29  1  0  0  0  0
 12 16  1  0  0  0  0
 12 30  1  0  0  0  0
 13 17  1  0  0  0  0
 13 31  1  0  0  0  0
 14 15  1  0  0  0  0
 14 18  1  0  0  0  0
 15 32  1  0  0  0  0
 16 17  2  0  0  0  0
 16 33  1  0  0  0  0
 17 34  1  0  0  0  0
 18 19  3  0  0  0  0
 19 20  1  0  0  0  0
 20 21  2  0  0  0  0
 21 22  1  0  0  0  0
 21 35  1  0  0  0  0
 22 23  2  0  0  0  0
 22 36  1  0  0  0  0
 23 24  1  0  0  0  0
 23 37  1  0  0  0  0
 24 38  1  0  0  0  0
M  END
> <Activity>
0.41259

> <Mapped(file=504701.csv.activities,property=Cached(PUBCHEM_COMPOUND_CID))>
0.41259

> <PUBCHEM_ATOM_DEF_STEREO_COUNT>
0

> <PUBCHEM_ATOM_UDEF_STEREO_COUNT>
0

> <PUBCHEM_BONDANNOTATIONS>
10  14  8
12  16  8
13  17  8
14  15  8
16  17  8
2  4  8
2  5  8
20  21  8
21  22  8
22  23  8
23  24  8
3  20  8
3  24  8
4  6  8
4  9  8
5  12  8
5  7  8
6  10  8
6  8  8
7  13  8
7  8  8
9  15  8

> <PUBCHEM_BOND_DEF_STEREO_COUNT>
0

> <PUBCHEM_BOND_UDEF_STEREO_COUNT>
0

> <PUBCHEM_CACTVS_COMPLEXITY>
545

> <PUBCHEM_CACTVS_HBOND_ACCEPTOR>
3

> <PUBCHEM_CACTVS_HBOND_DONOR>
0

> <PUBCHEM_CACTVS_ROTATABLE_BOND>
2

> <PUBCHEM_CACTVS_SUBSKEYS>
AAADccB7IAAAAAAAAAAAAAAAAAAAAAAAAAA8eIEAAAAAAACx0AAAHgAAAAAADAzBngQ+wJMIEADoE7R3RAiCgCA1AiAI2CE4ZNgIIPrAlZGEIYhggADIyccYiMCOCAACAAACAAAQAAQAAAQAAAAAAAAAAA==

> <PUBCHEM_CACTVS_TAUTO_COUNT>
1

> <PUBCHEM_CACTVS_TPSA>
33.2

> <PUBCHEM_COMPONENT_COUNT>
1

> <PUBCHEM_COMPOUND_CANONICALIZED>
1

> <PUBCHEM_COMPOUND_CID>
24819158

> <PUBCHEM_COORDINATE_TYPE>
1
5
255

> <PUBCHEM_EXACT_MASS>
310.110613

> <PUBCHEM_HEAVY_ATOM_COUNT>
24

> <PUBCHEM_ISOTOPIC_ATOM_COUNT>
0

> <PUBCHEM_IUPAC_CAS_NAME>
10-methyl-2-[2-(2-pyridinyl)ethynyl]-9-acridinone

> <PUBCHEM_IUPAC_INCHI>
InChI=1S/C21H14N2O/c1-23-19-8-3-2-7-17(19)21(24)18-14-15(10-12-20(18)23)9-11-16-6-4-5-13-22-16/h2-8,10,12-14H,1H3

> <PUBCHEM_IUPAC_INCHIKEY>
LQLFCACHZLXHIB-UHFFFAOYSA-N

> <PUBCHEM_IUPAC_NAME>
10-methyl-2-(2-pyridin-2-ylethynyl)acridin-9-one

> <PUBCHEM_IUPAC_OPENEYE_NAME>
10-methyl-2-[2-(2-pyridyl)ethynyl]acridin-9-one

> <PUBCHEM_IUPAC_SYSTEMATIC_NAME>
10-methyl-2-(2-pyridin-2-ylethynyl)acridin-9-one

> <PUBCHEM_IUPAC_TRADITIONAL_NAME>
10-methyl-2-[2-(2-pyridyl)ethynyl]acridin-9-one

> <PUBCHEM_MOLECULAR_FORMULA>
C21H14N2O

> <PUBCHEM_MOLECULAR_WEIGHT>
310.34866

> <PUBCHEM_MONOISOTOPIC_WEIGHT>
310.110613

> <PUBCHEM_OPENEYE_CAN_SMILES>
CN1C2=C(C=C(C=C2)C#CC3=CC=CC=N3)C(=O)C4=CC=CC=C41

> <PUBCHEM_OPENEYE_ISO_SMILES>
CN1C2=C(C=C(C=C2)C#CC3=CC=CC=N3)C(=O)C4=CC=CC=C41

> <PUBCHEM_TOTAL_CHARGE>
0

> <PUBCHEM_XLOGP3_AA>
4.1

$$$$
Written by BCL::WriteToMDL,662977
MBcorina  10171218483D 1   1.00000     0.00000 
CORINA 3.49 0026  01.06.2011
 34 37  0  0  0  0  0  0  0  0999 V2000
   -0.0220    1.7684    0.0118 S   0  0  0  1  0  2  0  0  0  0  0  0
   -4.4274   -3.4436    0.0249 O   0  0  0  1  0  2  0  0  0  0  0  0
    2.2212    0.6526   -0.0156 N   0  0  0  1  0  3  0  0  0  0  0  0
    1.2551   -0.3426   -0.0118 N   0  0  0  1  0  2  0  0  0  0  0  0
    3.8551    2.0923   -0.0235 N   0  0  0  1  0  2  0  0  0  0  0  0
    2.7544    2.7574   -0.0094 N   0  0  0  1  0  2  0  0  0  0  0  0
    3.5993    0.8038   -0.0280 C   0  0  0  1  0  3  0  0  0  0  0  0
    0.0021   -0.0041    0.0020 C   0  0  0  1  0  3  0  0  0  0  0  0
    1.7389    1.9282   -0.0042 C   0  0  0  1  0  3  0  0  0  0  0  0
   -1.1663   -0.9113    0.0083 C   0  0  0  1  0  3  0  0  0  0  0  0
    4.5978   -0.2854   -0.0424 C   0  0  0  1  0  3  0  0  0  0  0  0
   -2.4593   -0.3866    0.0229 C   0  0  0  1  0  3  0  0  0  0  0  0
   -0.9783   -2.2940   -0.0062 C   0  0  0  1  0  3  0  0  0  0  0  0
    5.9282   -0.0127   -0.3662 C   0  0  0  1  0  3  0  0  0  0  0  0
    4.2162   -1.5907    0.2734 C   0  0  0  1  0  3  0  0  0  0  0  0
   -3.5456   -1.2350    0.0283 C   0  0  0  1  0  3  0  0  0  0  0  0
   -2.0693   -3.1364   -0.0008 C   0  0  0  1  0  3  0  0  0  0  0  0
   -3.3546   -2.6105    0.0191 C   0  0  0  1  0  3  0  0  0  0  0  0
    6.8553   -1.0341   -0.3777 C   0  0  0  1  0  3  0  0  0  0  0  0
    5.1535   -2.6027    0.2581 C   0  0  0  1  0  3  0  0  0  0  0  0
    6.4692   -2.3265   -0.0694 C   0  0  0  1  0  3  0  0  0  0  0  0
   -4.1590   -4.8472    0.0148 C   0  0  0  1  0  4  0  0  0  0  0  0
   -2.6086    0.6830    0.0304 H   0  0  0  1  0  1  0  0  0  0  0  0
    0.0209   -2.7036   -0.0221 H   0  0  0  1  0  1  0  0  0  0  0  0
    6.2308    0.9956   -0.6074 H   0  0  0  1  0  1  0  0  0  0  0  0
    3.1897   -1.8075    0.5295 H   0  0  0  1  0  1  0  0  0  0  0  0
   -4.5466   -0.8296    0.0400 H   0  0  0  1  0  1  0  0  0  0  0  0
   -1.9245   -4.2065   -0.0124 H   0  0  0  1  0  1  0  0  0  0  0  0
    7.8847   -0.8247   -0.6284 H   0  0  0  1  0  1  0  0  0  0  0  0
    4.8596   -3.6129    0.5021 H   0  0  0  1  0  1  0  0  0  0  0  0
    7.1989   -3.1226   -0.0802 H   0  0  0  1  0  1  0  0  0  0  0  0
   -5.1001   -5.3971    0.0208 H   0  0  0  1  0  1  0  0  0  0  0  0
   -3.5946   -5.1027   -0.8820 H   0  0  0  1  0  1  0  0  0  0  0  0
   -3.5777   -5.1122    0.8979 H   0  0  0  1  0  1  0  0  0  0  0  0
  1  8  1  0  0  0  0
  1  9  1  0  0  0  0
  2 18  1  0  0  0  0
  2 22  1  0  0  0  0
  3  4  1  0  0  0  0
  3  7  1  0  0  0  0
  3  9  1  0  0  0  0
  4  8  2  0  0  0  0
  5  6  1  0  0  0  0
  5  7  2  0  0  0  0
  6  9  2  0  0  0  0
  7 11  1  0  0  0  0
  8 10  1  0  0  0  0
 10 12  2  0  0  0  0
 10 13  1  0  0  0  0
 11 14  2  0  0  0  0
 11 15  1  0  0  0  0
 12 16  1  0  0  0  0
 12 23  1  0  0  0  0
 13 17  2  0  0  0  0
 13 24  1  0  0  0  0
 14 19  1  0  0  0  0
 14 25  1  0  0  0  0
 15 20  2  0  0  0  0
 15 26  1  0  0  0  0
 16 18  2  0  0  0  0
 16 27  1  0  0  0  0
 17 18  1  0  0  0  0
 17 28  1  0  0  0  0
 19 21  2  0  0  0  0
 19 29  1  0  0  0  0
 20 21  1  0  0  0  0
 20 30  1  0  0  0  0
 21 31  1  0  0  0  0
 22 32  1  0  0  0  0
 22 33  1  0  0  0  0
 22 34  1  0  0  0  0
M  END
> <Activity>
2.44

> <Mapped(file=504701.csv.activities,property=Cached(PUBCHEM_COMPOUND_CID))>
2.44

> <PUBCHEM_ATOM_DEF_STEREO_COUNT>
0

> <PUBCHEM_ATOM_UDEF_STEREO_COUNT>
0

> <PUBCHEM_BONDANNOTATIONS>
1  8  8
1  9  8
10  12  8
10  13  8
11  14  8
11  15  8
12  16  8
13  17  8
14  19  8
15  20  8
16  18  8
17  18  8
19  21  8
20  21  8
3  4  8
3  7  8
3  9  8
4  8  8
5  6  8
5  7  8
6  9  8

> <PUBCHEM_BOND_DEF_STEREO_COUNT>
0

> <PUBCHEM_BOND_UDEF_STEREO_COUNT>
0

> <PUBCHEM_CACTVS_COMPLEXITY>
371

> <PUBCHEM_CACTVS_HBOND_ACCEPTOR>
2

> <PUBCHEM_CACTVS_HBOND_DONOR>
0

> <PUBCHEM_CACTVS_ROTATABLE_BOND>
3

> <PUBCHEM_CACTVS_SUBSKEYS>
AAADccB7oABAAAAAAAAAAAAAAAAAAWLAAAAwYAAAAAAWAAAB9AAAHgQIAAAADASB2wIzFoYIFAimAiJiJACS2ItgILgdiCAmDJiMLqKkuRuEMChkyBMIqAeQ0AAOIAAAAAAAAABAAAAAAAAAAAAAAAAAAA==

> <PUBCHEM_CACTVS_TAUTO_COUNT>
1

> <PUBCHEM_CACTVS_TPSA>
80.6

> <PUBCHEM_COMPONENT_COUNT>
1

> <PUBCHEM_COMPOUND_CANONICALIZED>
1

> <PUBCHEM_COMPOUND_CID>
662977

> <PUBCHEM_COORDINATE_TYPE>
1
5
255

> <PUBCHEM_EXACT_MASS>
308.073182

> <PUBCHEM_HEAVY_ATOM_COUNT>
22

> <PUBCHEM_ISOTOPIC_ATOM_COUNT>
0

> <PUBCHEM_IUPAC_CAS_NAME>
6-(4-methoxyphenyl)-3-phenyl-[1,2,4]triazolo[3,4-b][1,3,4]thiadiazole

> <PUBCHEM_IUPAC_INCHI>
InChI=1S/C16H12N4OS/c1-21-13-9-7-12(8-10-13)15-19-20-14(17-18-16(20)22-15)11-5-3-2-4-6-11/h2-10H,1H3

> <PUBCHEM_IUPAC_INCHIKEY>
OYYTYUQHNVLXFT-UHFFFAOYSA-N

> <PUBCHEM_IUPAC_NAME>
6-(4-methoxyphenyl)-3-phenyl-[1,2,4]triazolo[3,4-b][1,3,4]thiadiazole

> <PUBCHEM_IUPAC_OPENEYE_NAME>
6-(4-methoxyphenyl)-3-phenyl-[1,2,4]triazolo[3,4-b][1,3,4]thiadiazole

> <PUBCHEM_IUPAC_SYSTEMATIC_NAME>
6-(4-methoxyphenyl)-3-phenyl-[1,2,4]triazolo[3,4-b][1,3,4]thiadiazole

> <PUBCHEM_IUPAC_TRADITIONAL_NAME>
6-(4-methoxyphenyl)-3-phenyl-[1,2,4]triazolo[3,4-b][1,3,4]thiadiazole

> <PUBCHEM_MOLECULAR_FORMULA>
C16H12N4OS

> <PUBCHEM_MOLECULAR_WEIGHT>
308.35768

> <PUBCHEM_MONOISOTOPIC_WEIGHT>
308.073182

> <PUBCHEM_OPENEYE_CAN_SMILES>
COC1=CC=C(C=C1)C2=NN3C(=NN=C3S2)C4=CC=CC=C4

> <PUBCHEM_OPENEYE_ISO_SMILES>
COC1=CC=C(C=C1)C2=NN3C(=NN=C3S2)C4=CC=CC=C4

> <PUBCHEM_TOTAL_CHARGE>
0

> <PUBCHEM_XLOGP3_AA>
3.6

$$$$
Written by BCL::WriteToMDL,16060398
MBcorina  10171218483D 1   1.00000     0.00000 
CORINA 3.49 0026  01.06.2011
 45 48  0  0  0  0  0  0  0  0999 V2000
   -5.3558    1.2265   -0.3522 Cl  0  0  0  1  0  1  0  0  0  0  0  0
   -0.5103    1.3859    0.3240 S   0  0  0  1  0  4  0  0  0  0  0  0
   -3.4223    2.6584   -2.2138 O   0  0  0  1  0  2  0  0  0  0  0  0
   -3.7359    1.3866    2.4901 O   0  0  0  1  0  2  0  0  0  0  0  0
   -0.3118   -0.0186    0.2400 O   0  0  0  1  0  1  0  0  0  0  0  0
    0.4923    2.2870    0.7735 O   0  0  0  1  0  1  0  0  0  0  0  0
   -2.0950    7.2419   -2.0980 O   0  0  0  1  0  2  0  0  0  0  0  0
   -4.4053    6.4716   -2.9200 O   0  0  0  1  0  1  0  0  0  0  0  0
   -0.9445    1.8884   -1.1930 N   0  0  0  1  0  3  0  0  0  0  0  0
   -3.3466    2.5019    2.7488 N   0  0  0  1  0  2  0  0  0  0  0  0
   -1.2456    3.2377   -1.4251 C   0  0  0  1  0  3  0  0  0  0  0  0
   -2.4918    3.5965   -1.9358 C   0  0  0  1  0  3  0  0  0  0  0  0
   -1.9048    1.6295    1.3731 C   0  0  0  1  0  3  0  0  0  0  0  0
   -2.7778    4.9517   -2.1627 C   0  0  0  1  0  3  0  0  0  0  0  0
   -0.3045    4.2156   -1.1479 C   0  0  0  1  0  3  0  0  0  0  0  0
   -2.9082    0.7603    1.6419 C   0  0  0  1  0  3  0  0  0  0  0  0
   -2.2348    2.7771    2.1301 C   0  0  0  1  0  3  0  0  0  0  0  0
   -1.8191    5.9302   -1.8783 C   0  0  0  1  0  3  0  0  0  0  0  0
   -4.6306    2.9711   -2.7065 C   0  0  0  1  0  3  0  0  0  0  0  0
   -4.1019    5.3099   -2.7035 C   0  0  0  1  0  3  0  0  0  0  0  0
   -0.5876    5.5527   -1.3721 C   0  0  0  1  0  3  0  0  0  0  0  0
   -5.0068    4.2531   -2.9618 C   0  0  0  1  0  3  0  0  0  0  0  0
   -5.5882    1.8820   -2.9825 C   0  0  0  1  0  3  0  0  0  0  0  0
   -3.0633   -0.6356    1.0956 C   0  0  0  1  0  4  0  0  0  0  0  0
   -1.4546    4.0641    2.2052 C   0  0  0  1  0  4  0  0  0  0  0  0
   -5.9864    1.0200   -1.9563 C   0  0  0  1  0  3  0  0  0  0  0  0
   -6.1051    1.7112   -4.2685 C   0  0  0  1  0  3  0  0  0  0  0  0
   -6.8824    0.0037   -2.2226 C   0  0  0  1  0  3  0  0  0  0  0  0
   -6.9994    0.6915   -4.5194 C   0  0  0  1  0  3  0  0  0  0  0  0
   -7.3849   -0.1622   -3.5008 C   0  0  0  1  0  3  0  0  0  0  0  0
   -0.9904    1.2491   -1.9211 H   0  0  0  1  0  1  0  0  0  0  0  0
    0.6598    3.9325   -0.7526 H   0  0  0  1  0  1  0  0  0  0  0  0
    0.1561    6.3041   -1.1512 H   0  0  0  1  0  1  0  0  0  0  0  0
   -5.9891    4.4629   -3.3586 H   0  0  0  1  0  1  0  0  0  0  0  0
   -3.9721   -1.0840    1.4969 H   0  0  0  1  0  1  0  0  0  0  0  0
   -3.1277   -0.5952    0.0082 H   0  0  0  1  0  1  0  0  0  0  0  0
   -2.2022   -1.2373    1.3864 H   0  0  0  1  0  1  0  0  0  0  0  0
   -0.7317    4.0039    3.0188 H   0  0  0  1  0  1  0  0  0  0  0  0
   -0.9295    4.2262    1.2638 H   0  0  0  1  0  1  0  0  0  0  0  0
   -2.1382    4.8934    2.3873 H   0  0  0  1  0  1  0  0  0  0  0  0
   -5.8055    2.3764   -5.0649 H   0  0  0  1  0  1  0  0  0  0  0  0
   -2.4912    7.6928   -1.3399 H   0  0  0  1  0  1  0  0  0  0  0  0
   -7.1914   -0.6633   -1.4313 H   0  0  0  1  0  1  0  0  0  0  0  0
   -7.3998    0.5590   -5.5136 H   0  0  0  1  0  1  0  0  0  0  0  0
   -8.0849   -0.9592   -3.7037 H   0  0  0  1  0  1  0  0  0  0  0  0
  1 26  1  0  0  0  0
  2  5  2  0  0  0  0
  2  6  2  0  0  0  0
  2  9  1  0  0  0  0
  2 13  1  0  0  0  0
  3 12  1  0  0  0  0
  3 19  1  0  0  0  0
  4 10  1  0  0  0  0
  4 16  1  0  0  0  0
  7 18  1  0  0  0  0
  7 42  1  0  0  0  0
  8 20  2  0  0  0  0
  9 11  1  0  0  0  0
  9 31  1  0  0  0  0
 10 17  2  0  0  0  0
 11 12  2  0  0  0  0
 11 15  1  0  0  0  0
 12 14  1  0  0  0  0
 13 16  2  0  0  0  0
 13 17  1  0  0  0  0
 14 18  2  0  0  0  0
 14 20  1  0  0  0  0
 15 21  2  0  0  0  0
 15 32  1  0  0  0  0
 16 24  1  0  0  0  0
 17 25  1  0  0  0  0
 18 21  1  0  0  0  0
 19 22  2  0  0  0  0
 19 23  1  0  0  0  0
 20 22  1  0  0  0  0
 21 33  1  0  0  0  0
 22 34  1  0  0  0  0
 23 26  1  0  0  0  0
 23 27  2  0  0  0  0
 24 35  1  0  0  0  0
 24 36  1  0  0  0  0
 24 37  1  0  0  0  0
 25 38  1  0  0  0  0
 25 39  1  0  0  0  0
 25 40  1  0  0  0  0
 26 28  2  0  0  0  0
 27 29  1  0  0  0  0
 27 41  1  0  0  0  0
 28 30  1  0  0  0  0
 28 43  1  0  0  0  0
 29 30  2  0  0  0  0
 29 44  1  0  0  0  0
 30 45  1  0  0  0  0
M  END
> <Activity>
0.15066

> <Mapped(file=504701.csv.activities,property=Cached(PUBCHEM_COMPOUND_CID))>
0.15066

> <PUBCHEM_ATOM_DEF_STEREO_COUNT>
0

> <PUBCHEM_ATOM_UDEF_STEREO_COUNT>
0

> <PUBCHEM_BONDANNOTATIONS>
10  17  8
11  12  8
11  15  8
12  14  8
13  16  8
13  17  8
14  18  8
14  20  8
15  21  8
18  21  8
19  22  8
20  22  8
23  26  8
23  27  8
26  28  8
27  29  8
28  30  8
29  30  8
3  12  8
3  19  8
4  10  8
4  16  8

> <PUBCHEM_BOND_DEF_STEREO_COUNT>
0

> <PUBCHEM_BOND_UDEF_STEREO_COUNT>
0

> <PUBCHEM_CACTVS_COMPLEXITY>
800

> <PUBCHEM_CACTVS_HBOND_ACCEPTOR>
8

> <PUBCHEM_CACTVS_HBOND_DONOR>
2

> <PUBCHEM_CACTVS_ROTATABLE_BOND>
4

> <PUBCHEM_CACTVS_SUBSKEYS>
AAADccB7OABEAAAAAAAAAAAAAAAAAWAAAAAwYIAAAAAAAACB0AAAHgYUSAAADA6B3iAyx5BQBgKpA6RyQnDCCBAkJwAomDc3btoOJz6Ht5uDeeDn8B0I+Ue86KyOAEAASAAJEAAAgACQABIgAAAAAAAAAA==

> <PUBCHEM_CACTVS_TAUTO_COUNT>
4

> <PUBCHEM_CACTVS_TPSA>
127

> <PUBCHEM_COMPONENT_COUNT>
1

> <PUBCHEM_COMPOUND_CANONICALIZED>
1

> <PUBCHEM_COMPOUND_CID>
16060398

> <PUBCHEM_COORDINATE_TYPE>
1
5
255

> <PUBCHEM_EXACT_MASS>
446.033935

> <PUBCHEM_HEAVY_ATOM_COUNT>
30

> <PUBCHEM_ISOTOPIC_ATOM_COUNT>
0

> <PUBCHEM_IUPAC_CAS_NAME>
N-[2-(2-chlorophenyl)-5-hydroxy-4-oxo-1-benzopyran-8-yl]-3,5-dimethyl-4-isoxazolesulfonamide

> <PUBCHEM_IUPAC_INCHI>
InChI=1S/C20H15ClN2O6S/c1-10-20(11(2)29-22-10)30(26,27)23-14-7-8-15(24)18-16(25)9-17(28-19(14)18)12-5-3-4-6-13(12)21/h3-9,23-24H,1-2H3

> <PUBCHEM_IUPAC_INCHIKEY>
XKYBPHWVOXMRHI-UHFFFAOYSA-N

> <PUBCHEM_IUPAC_NAME>
N-[2-(2-chlorophenyl)-5-hydroxy-4-oxochromen-8-yl]-3,5-dimethyl-1,2-oxazole-4-sulfonamide

> <PUBCHEM_IUPAC_OPENEYE_NAME>
N-[2-(2-chlorophenyl)-5-hydroxy-4-oxo-chromen-8-yl]-3,5-dimethyl-isoxazole-4-sulfonamide

> <PUBCHEM_IUPAC_SYSTEMATIC_NAME>
N-[2-(2-chlorophenyl)-5-oxidanyl-4-oxidanylidene-chromen-8-yl]-3,5-dimethyl-1,2-oxazole-4-sulfonamide

> <PUBCHEM_IUPAC_TRADITIONAL_NAME>
N-[2-(2-chlorophenyl)-5-hydroxy-4-keto-chromen-8-yl]-3,5-dimethyl-isoxazole-4-sulfonamide

> <PUBCHEM_MOLECULAR_FORMULA>
C20H15ClN2O6S

> <PUBCHEM_MOLECULAR_WEIGHT>
446.8609

> <PUBCHEM_MONOISOTOPIC_WEIGHT>
446.033935

> <PUBCHEM_OPENEYE_CAN_SMILES>
CC1=C(C(=NO1)C)S(=O)(=O)NC2=C3C(=C(C=C2)O)C(=O)C=C(O3)C4=CC=CC=C4Cl

> <PUBCHEM_OPENEYE_ISO_SMILES>
CC1=C(C(=NO1)C)S(=O)(=O)NC2=C3C(=C(C=C2)O)C(=O)C=C(O3)C4=CC=CC=C4Cl

> <PUBCHEM_TOTAL_CHARGE>
0

> <PUBCHEM_XLOGP3_AA>
3.8

$$$$
Written by BCL::WriteToMDL,659228
MBcorina  10171218483D 1   1.00000     0.00000 
CORINA 3.49 0026  01.06.2011
 30 33  0  0  0  0  0  0  0  0999 V2000
    1.5075    3.0958    0.0022 O   0  0  0  1  0  1  0  0  0  0  0  0
   -0.0169    1.3919    0.0097 N   0  0  0  1  0  3  0  0  0  0  0  0
    3.0625    0.7887    1.1585 N   0  0  0  1  0  2  0  0  0  0  0  0
    3.0478    0.8013   -1.1937 N   0  0  0  1  0  2  0  0  0  0  0  0
    2.1877    0.7587   -0.0125 C   0  0  0  1  0  4  0  0  0  0  0  0
    1.3139   -0.4672   -0.0124 C   0  0  0  1  0  3  0  0  0  0  0  0
    0.0021   -0.0041    0.0020 C   0  0  0  1  0  3  0  0  0  0  0  0
    1.2221    1.9170    0.0007 C   0  0  0  1  0  3  0  0  0  0  0  0
    4.2794    0.8538   -0.7695 C   0  0  0  1  0  3  0  0  0  0  0  0
    4.2886    0.8458    0.7195 C   0  0  0  1  0  3  0  0  0  0  0  0
    1.5817   -1.8174   -0.0239 C   0  0  0  1  0  3  0  0  0  0  0  0
   -1.0397   -0.9284    0.0070 C   0  0  0  1  0  3  0  0  0  0  0  0
   -1.2437    2.1925    0.0201 C   0  0  0  1  0  4  0  0  0  0  0  0
    0.5407   -2.7295   -0.0176 C   0  0  0  1  0  3  0  0  0  0  0  0
   -0.7670   -2.2809   -0.0028 C   0  0  0  1  0  3  0  0  0  0  0  0
    5.5731    0.9157   -1.4626 C   0  0  0  1  0  3  0  0  0  0  0  0
    5.5907    0.8999    1.3975 C   0  0  0  1  0  3  0  0  0  0  0  0
    6.7205    0.9545    0.6639 C   0  0  0  1  0  3  0  0  0  0  0  0
    6.7118    0.9630   -0.7423 C   0  0  0  1  0  3  0  0  0  0  0  0
    2.6042   -2.1650   -0.0356 H   0  0  0  1  0  1  0  0  0  0  0  0
   -2.0638   -0.5856    0.0189 H   0  0  0  1  0  1  0  0  0  0  0  0
   -1.5429    2.3855    1.0503 H   0  0  0  1  0  1  0  0  0  0  0  0
   -1.0641    3.1392   -0.4895 H   0  0  0  1  0  1  0  0  0  0  0  0
   -2.0369    1.6486   -0.4929 H   0  0  0  1  0  1  0  0  0  0  0  0
    0.7494   -3.7891   -0.0266 H   0  0  0  1  0  1  0  0  0  0  0  0
   -1.5792   -2.9928    0.0014 H   0  0  0  1  0  1  0  0  0  0  0  0
    5.6118    0.9229   -2.5418 H   0  0  0  1  0  1  0  0  0  0  0  0
    5.6426    0.8963    2.4762 H   0  0  0  1  0  1  0  0  0  0  0  0
    7.6551    1.0084   -1.2663 H   0  0  0  1  0  1  0  0  0  0  0  0
    7.6702    0.9942    1.1767 H   0  0  0  1  0  1  0  0  0  0  0  0
  1  8  2  0  0  0  0
  2  7  1  0  0  0  0
  2  8  1  0  0  0  0
  2 13  1  0  0  0  0
  3  5  1  0  0  0  0
  3 10  2  0  0  0  0
  4  5  1  0  0  0  0
  4  9  2  0  0  0  0
  5  6  1  0  0  0  0
  5  8  1  0  0  0  0
  6  7  1  0  0  0  0
  6 11  2  0  0  0  0
  7 12  2  0  0  0  0
  9 10  1  0  0  0  0
  9 16  1  0  0  0  0
 10 17  1  0  0  0  0
 11 14  1  0  0  0  0
 11 20  1  0  0  0  0
 12 15  1  0  0  0  0
 12 21  1  0  0  0  0
 13 22  1  0  0  0  0
 13 23  1  0  0  0  0
 13 24  1  0  0  0  0
 14 15  2  0  0  0  0
 14 25  1  0  0  0  0
 15 26  1  0  0  0  0
 16 19  2  0  0  0  0
 16 27  1  0  0  0  0
 17 18  2  0  0  0  0
 17 28  1  0  0  0  0
 18 19  1  0  0  0  0
 18 30  1  0  0  0  0
 19 29  1  0  0  0  0
M  END
> <Activity>
3.219

> <Mapped(file=504701.csv.activities,property=Cached(PUBCHEM_COMPOUND_CID))>
3.219

> <PUBCHEM_ATOM_DEF_STEREO_COUNT>
0

> <PUBCHEM_ATOM_UDEF_STEREO_COUNT>
0

> <PUBCHEM_BONDANNOTATIONS>
10  17  8
11  14  8
12  15  8
14  15  8
16  19  8
17  18  8
18  19  8
6  11  8
6  7  8
7  12  8
9  10  8
9  16  8

> <PUBCHEM_BOND_DEF_STEREO_COUNT>
0

> <PUBCHEM_BOND_UDEF_STEREO_COUNT>
0

> <PUBCHEM_CACTVS_COMPLEXITY>
542

> <PUBCHEM_CACTVS_HBOND_ACCEPTOR>
3

> <PUBCHEM_CACTVS_HBOND_DONOR>
0

> <PUBCHEM_CACTVS_ROTATABLE_BOND>
0

> <PUBCHEM_CACTVS_SUBSKEYS>
AAADccBzIAAAAAAAAAAAAAAAAAAAAWIAAAAwQAAAAAAAAFgBAAAAHgAAAAAADAiBmAQzwIMAAACoAyVyVACCAAAhAgAIiAG4ZJgIYDLA1ZGUIAhghgDIyAcciICOAAAAAAACAAAAAAAAAAQAAAAAAAAAAA==

> <PUBCHEM_CACTVS_TAUTO_COUNT>
1

> <PUBCHEM_CACTVS_TPSA>
45

> <PUBCHEM_COMPONENT_COUNT>
1

> <PUBCHEM_COMPOUND_CANONICALIZED>
1

> <PUBCHEM_COMPOUND_CID>
659228

> <PUBCHEM_COORDINATE_TYPE>
1
5
255

> <PUBCHEM_EXACT_MASS>
249.090212

> <PUBCHEM_HEAVY_ATOM_COUNT>
19

> <PUBCHEM_ISOTOPIC_ATOM_COUNT>
0

> <PUBCHEM_IUPAC_CAS_NAME>
1'-methyl-2'-spiro[benzimidazole-2,3'-indole]one

> <PUBCHEM_IUPAC_INCHI>
InChI=1S/C15H11N3O/c1-18-13-9-5-2-6-10(13)15(14(18)19)16-11-7-3-4-8-12(11)17-15/h2-9H,1H3

> <PUBCHEM_IUPAC_INCHIKEY>
HRECINZTPLTEQH-UHFFFAOYSA-N

> <PUBCHEM_IUPAC_NAME>
1'-methylspiro[benzimidazole-2,3'-indole]-2'-one

> <PUBCHEM_IUPAC_OPENEYE_NAME>
1'-methylspiro[benzimidazole-2,3'-indoline]-2'-one

> <PUBCHEM_IUPAC_SYSTEMATIC_NAME>
1'-methylspiro[benzimidazole-2,3'-indole]-2'-one

> <PUBCHEM_IUPAC_TRADITIONAL_NAME>
1'-methylspiro[benzimidazole-2,3'-indoline]-2'-one

> <PUBCHEM_MOLECULAR_FORMULA>
C15H11N3O

> <PUBCHEM_MOLECULAR_WEIGHT>
249.26734

> <PUBCHEM_MONOISOTOPIC_WEIGHT>
249.090212

> <PUBCHEM_OPENEYE_CAN_SMILES>
CN1C2=CC=CC=C2C3(C1=O)N=C4C=CC=CC4=N3

> <PUBCHEM_OPENEYE_ISO_SMILES>
CN1C2=CC=CC=C2C3(C1=O)N=C4C=CC=CC4=N3

> <PUBCHEM_TOTAL_CHARGE>
0

> <PUBCHEM_XLOGP3_AA>
1.1

$$$$
